# This file was generated by ISODISTORT, version 6.11.1
# Harold T. Stokes, Branton J. Campbell, David Tanner, Dorian M. Hatch
# Brigham Young University, Provo, Utah, USA
#
# Space Group: 221 Pm-3m      Oh-1
# Default space-group preferences: monoclinic axes a(b)c, monoclinic cell choice 1, orthorhombic axes abc, origin choice 2, hexagonal axes, SSG standard setting
# Lattice parameters: a=4.01245, b=4.01245, c=4.01245, alpha=90.00000, beta=90.00000, gamma=90.00000
# Sc1 1b (1/2,1/2,1/2)
# F1 3c (0,1/2,1/2)
# Include strain, displacive ALL distortions
# Subgroup:   1 P1, basis={(0,0,2),(0,2,0),(-2,0,0)}, origin=(0,0,0), s=8, i=384
# Order parameter values:
#  Pm-3m[0,0,0]GM1+(a) 221 Pm-3m s=1 i=1
#     strain(a): 0.00000
#  Pm-3m[0,0,0]GM3+(a,b) 47 Pmmm s=1 i=6
#     strain(a): 0.00000
#     strain(b): 0.00000
#  Pm-3m[0,0,0]GM5+(a,b,c) 2 P-1 s=1 i=24
#     strain(a): 0.00000
#     strain(b): 0.00000
#     strain(c): 0.00000
#  Pm-3m[0,0,0]GM4-(a,b,c) 1 P1 s=1 i=48
#     [Sc1:b:dsp]T1u(a): 0.00000
#     [Sc1:b:dsp]T1u(b): 0.00000
#     [Sc1:b:dsp]T1u(c): 0.00000
#     [F1:c:dsp]A2u(a): 0.00000
#     [F1:c:dsp]A2u(b): 0.00000
#     [F1:c:dsp]A2u(c): 0.00000
#     [F1:c:dsp]Eu(a): 0.00000
#     [F1:c:dsp]Eu(b): 0.00000
#     [F1:c:dsp]Eu(c): 0.00000
#  Pm-3m[0,0,0]GM5-(a,b,c) 1 P1 s=1 i=48
#     [F1:c:dsp]Eu(a): 0.00000
#     [F1:c:dsp]Eu(b): 0.00000
#     [F1:c:dsp]Eu(c): 0.00000
#  Pm-3m[1/2,1/2,1/2]R5+(a,b,c) 2 P-1 s=2 i=48
#     [Sc1:b:dsp]T1u(a): 0.00000
#     [Sc1:b:dsp]T1u(b): 0.00000
#     [Sc1:b:dsp]T1u(c): 0.00000
#  Pm-3m[1/2,1/2,1/2]R2-(a) 225 Fm-3m s=2 i=2
#     [F1:c:dsp]A2u(a): 0.00000
#  Pm-3m[1/2,1/2,1/2]R3-(a,b) 69 Fmmm s=2 i=12
#     [F1:c:dsp]A2u(a): 0.00000
#     [F1:c:dsp]A2u(b): 0.00000
#  Pm-3m[1/2,1/2,1/2]R4-(a,b,c) 2 P-1 s=2 i=48
#     [F1:c:dsp]Eu(a): 0.00000
#     [F1:c:dsp]Eu(b): 0.00000
#     [F1:c:dsp]Eu(c): 0.00000
#  Pm-3m[1/2,1/2,1/2]R5-(a,b,c) 2 P-1 s=2 i=48
#     [F1:c:dsp]Eu(a): 0.00000
#     [F1:c:dsp]Eu(b): 0.00000
#     [F1:c:dsp]Eu(c): 0.00000
#  Pm-3m[0,1/2,0]X1+(a;b;c) 47 Pmmm s=8 i=48
#     [Sc1:b:dsp]T1u(a): 0.00000
#     [Sc1:b:dsp]T1u(b): 0.00000
#     [Sc1:b:dsp]T1u(c): 0.00000
#     [F1:c:dsp]Eu(a): 0.00000
#     [F1:c:dsp]Eu(b): 0.00000
#     [F1:c:dsp]Eu(c): 0.00000
#  Pm-3m[0,1/2,0]X2+(a;b;c) 47 Pmmm s=8 i=48
#     [F1:c:dsp]Eu(a): 0.00000
#     [F1:c:dsp]Eu(b): 0.00000
#     [F1:c:dsp]Eu(c): 0.00000
#  Pm-3m[0,1/2,0]X5+(a,b;c,d;e,f) 2 P-1 s=8 i=192
#     [Sc1:b:dsp]T1u(a): 0.00000
#     [Sc1:b:dsp]T1u(b): 0.00000
#     [Sc1:b:dsp]T1u(c): 0.00000
#     [Sc1:b:dsp]T1u(d): 0.00000
#     [Sc1:b:dsp]T1u(e): 0.00000
#     [Sc1:b:dsp]T1u(f): 0.00000
#     [F1:c:dsp]A2u(a): 0.00000
#     [F1:c:dsp]A2u(b): 0.00000
#     [F1:c:dsp]A2u(c): 0.00000
#     [F1:c:dsp]A2u(d): 0.00000
#     [F1:c:dsp]A2u(e): 0.00000
#     [F1:c:dsp]A2u(f): 0.00000
#     [F1:c:dsp]Eu(a): 0.00000
#     [F1:c:dsp]Eu(b): 0.00000
#     [F1:c:dsp]Eu(c): 0.00000
#     [F1:c:dsp]Eu(d): 0.00000
#     [F1:c:dsp]Eu(e): 0.00000
#     [F1:c:dsp]Eu(f): 0.00000
#  Pm-3m[0,1/2,0]X3-(a;b;c) 47 Pmmm s=8 i=48
#     [F1:c:dsp]A2u(a): 0.00000
#     [F1:c:dsp]A2u(b): 0.00000
#     [F1:c:dsp]A2u(c): 0.00000
#  Pm-3m[0,1/2,0]X5-(a,b;c,d;e,f) 2 P-1 s=8 i=192
#     [F1:c:dsp]Eu(a): 0.00000
#     [F1:c:dsp]Eu(b): 0.00000
#     [F1:c:dsp]Eu(c): 0.00000
#     [F1:c:dsp]Eu(d): 0.00000
#     [F1:c:dsp]Eu(e): 0.00000
#     [F1:c:dsp]Eu(f): 0.00000
#  Pm-3m[1/2,1/2,0]M1+(a;b;c) 71 Immm s=4 i=24
#     [F1:c:dsp]Eu(a): 0.00000
#     [F1:c:dsp]Eu(b): 0.00000
#     [F1:c:dsp]Eu(c): 0.00000
#  Pm-3m[1/2,1/2,0]M2+(a;b;c) 71 Immm s=4 i=24
#     [F1:c:dsp]Eu(a): 0.00000
#     [F1:c:dsp]Eu(b): 0.00000
#     [F1:c:dsp]Eu(c): 0.00000
#  Pm-3m[1/2,1/2,0]M3+(a;b;c) 71 Immm s=4 i=24
#     [F1:c:dsp]A2u(a): 0.00000
#     [F1:c:dsp]A2u(b): 0.00000
#     [F1:c:dsp]A2u(c): 0.00000
#  Pm-3m[1/2,1/2,0]M4+(a;b;c) 71 Immm s=4 i=24
#     [F1:c:dsp]A2u(a): 0.00000
#     [F1:c:dsp]A2u(b): 0.00000
#     [F1:c:dsp]A2u(c): 0.00000
#  Pm-3m[1/2,1/2,0]M5+(a,b;c,d;e,f) 2 P-1 s=4 i=96
#     [F1:c:dsp]Eu(a): 0.00000
#     [F1:c:dsp]Eu(b): 0.00000
#     [F1:c:dsp]Eu(c): 0.00000
#     [F1:c:dsp]Eu(d): 0.00000
#     [F1:c:dsp]Eu(e): 0.00000
#     [F1:c:dsp]Eu(f): 0.00000
#  Pm-3m[1/2,1/2,0]M2-(a;b;c) 23 I222 s=4 i=48
#     [Sc1:b:dsp]T1u(a): 0.00000
#     [Sc1:b:dsp]T1u(b): 0.00000
#     [Sc1:b:dsp]T1u(c): 0.00000
#     [F1:c:dsp]A2u(a): 0.00000
#     [F1:c:dsp]A2u(b): 0.00000
#     [F1:c:dsp]A2u(c): 0.00000
#  Pm-3m[1/2,1/2,0]M5-(a,b;c,d;e,f) 1 P1 s=4 i=192
#     [Sc1:b:dsp]T1u(a): 0.00000
#     [Sc1:b:dsp]T1u(b): 0.00000
#     [Sc1:b:dsp]T1u(c): 0.00000
#     [Sc1:b:dsp]T1u(d): 0.00000
#     [Sc1:b:dsp]T1u(e): 0.00000
#     [Sc1:b:dsp]T1u(f): 0.00000
#     [F1:c:dsp]Eu(a): 0.00000
#     [F1:c:dsp]Eu(b): 0.00000
#     [F1:c:dsp]Eu(c): 0.00000
#     [F1:c:dsp]Eu(d): 0.00000
#     [F1:c:dsp]Eu(e): 0.00000
#     [F1:c:dsp]Eu(f): 0.00000

data_isodistort-output

_cell_length_a    8.02490
_cell_length_b    8.02490
_cell_length_c    8.02490
_cell_angle_alpha 90.00000
_cell_angle_beta  90.00000
_cell_angle_gamma 90.00000
_cell_volume      516.79570

_symmetry_space_group_name_H-M "P 1"
_symmetry_Int_Tables_number 1
_space_group.reference_setting '001:P 1'
_space_group.transform_Pp_abc a,b,c;0,0,0

loop_
_space_group_symop_id
_space_group_symop_operation_xyz
1 x,y,z

loop_
_atom_site_label
_atom_site_type_symbol
_atom_site_symmetry_multiplicity
_atom_site_Wyckoff_label
_atom_site_fract_x
_atom_site_fract_y
_atom_site_fract_z
_atom_site_occupancy
_atom_site_fract_symmform
Sc1_1 Sc   1 a 0.25000 0.25000 0.75000 1.00000 Dx,Dy,Dz 
Sc1_2 Sc   1 a 0.25000 0.25000 0.25000 1.00000 Dx,Dy,Dz 
Sc1_3 Sc   1 a 0.25000 0.75000 0.75000 1.00000 Dx,Dy,Dz 
Sc1_4 Sc   1 a 0.25000 0.75000 0.25000 1.00000 Dx,Dy,Dz 
Sc1_5 Sc   1 a 0.75000 0.25000 0.75000 1.00000 Dx,Dy,Dz 
Sc1_6 Sc   1 a 0.75000 0.25000 0.25000 1.00000 Dx,Dy,Dz 
Sc1_7 Sc   1 a 0.75000 0.75000 0.75000 1.00000 Dx,Dy,Dz 
Sc1_8 Sc   1 a 0.75000 0.75000 0.25000 1.00000 Dx,Dy,Dz 
F1_1  F    1 a 0.25000 0.25000 0.00000 1.00000 Dx,Dy,Dz 
F1_2  F    1 a 0.25000 0.25000 0.50000 1.00000 Dx,Dy,Dz 
F1_3  F    1 a 0.25000 0.75000 0.00000 1.00000 Dx,Dy,Dz 
F1_4  F    1 a 0.25000 0.75000 0.50000 1.00000 Dx,Dy,Dz 
F1_5  F    1 a 0.75000 0.25000 0.00000 1.00000 Dx,Dy,Dz 
F1_6  F    1 a 0.75000 0.25000 0.50000 1.00000 Dx,Dy,Dz 
F1_7  F    1 a 0.75000 0.75000 0.00000 1.00000 Dx,Dy,Dz 
F1_8  F    1 a 0.75000 0.75000 0.50000 1.00000 Dx,Dy,Dz 
F1_9  F    1 a 0.00000 0.25000 0.75000 1.00000 Dx,Dy,Dz 
F1_10 F    1 a 0.00000 0.25000 0.25000 1.00000 Dx,Dy,Dz 
F1_11 F    1 a 0.00000 0.75000 0.75000 1.00000 Dx,Dy,Dz 
F1_12 F    1 a 0.00000 0.75000 0.25000 1.00000 Dx,Dy,Dz 
F1_13 F    1 a 0.50000 0.25000 0.75000 1.00000 Dx,Dy,Dz 
F1_14 F    1 a 0.50000 0.25000 0.25000 1.00000 Dx,Dy,Dz 
F1_15 F    1 a 0.50000 0.75000 0.75000 1.00000 Dx,Dy,Dz 
F1_16 F    1 a 0.50000 0.75000 0.25000 1.00000 Dx,Dy,Dz 
F1_17 F    1 a 0.25000 0.00000 0.75000 1.00000 Dx,Dy,Dz 
F1_18 F    1 a 0.25000 0.00000 0.25000 1.00000 Dx,Dy,Dz 
F1_19 F    1 a 0.25000 0.50000 0.75000 1.00000 Dx,Dy,Dz 
F1_20 F    1 a 0.25000 0.50000 0.25000 1.00000 Dx,Dy,Dz 
F1_21 F    1 a 0.75000 0.00000 0.75000 1.00000 Dx,Dy,Dz 
F1_22 F    1 a 0.75000 0.00000 0.25000 1.00000 Dx,Dy,Dz 
F1_23 F    1 a 0.75000 0.50000 0.75000 1.00000 Dx,Dy,Dz 
F1_24 F    1 a 0.75000 0.50000 0.25000 1.00000 Dx,Dy,Dz 

_iso_displacivemode_number   96

loop_
_iso_displacivemode_ID
_iso_displacivemode_label
_iso_displacivemode_value
   1 Pm-3m[0,0,0]GM4-(a,b,c)[Sc1:b:dsp]T1u(a) 0.00000
   2 Pm-3m[0,0,0]GM4-(a,b,c)[Sc1:b:dsp]T1u(b) 0.00000
   3 Pm-3m[0,0,0]GM4-(a,b,c)[Sc1:b:dsp]T1u(c) 0.00000
   4 Pm-3m[1/2,1/2,1/2]R5+(a,b,c)[Sc1:b:dsp]T1u(a) 0.00000
   5 Pm-3m[1/2,1/2,1/2]R5+(a,b,c)[Sc1:b:dsp]T1u(b) 0.00000
   6 Pm-3m[1/2,1/2,1/2]R5+(a,b,c)[Sc1:b:dsp]T1u(c) 0.00000
   7 Pm-3m[0,1/2,0]X1+(a;b;c)[Sc1:b:dsp]T1u(a) 0.00000
   8 Pm-3m[0,1/2,0]X1+(a;b;c)[Sc1:b:dsp]T1u(b) 0.00000
   9 Pm-3m[0,1/2,0]X1+(a;b;c)[Sc1:b:dsp]T1u(c) 0.00000
  10 Pm-3m[0,1/2,0]X5+(a,b;c,d;e,f)[Sc1:b:dsp]T1u(a) 0.00000
  11 Pm-3m[0,1/2,0]X5+(a,b;c,d;e,f)[Sc1:b:dsp]T1u(b) 0.00000
  12 Pm-3m[0,1/2,0]X5+(a,b;c,d;e,f)[Sc1:b:dsp]T1u(c) 0.00000
  13 Pm-3m[0,1/2,0]X5+(a,b;c,d;e,f)[Sc1:b:dsp]T1u(d) 0.00000
  14 Pm-3m[0,1/2,0]X5+(a,b;c,d;e,f)[Sc1:b:dsp]T1u(e) 0.00000
  15 Pm-3m[0,1/2,0]X5+(a,b;c,d;e,f)[Sc1:b:dsp]T1u(f) 0.00000
  16 Pm-3m[1/2,1/2,0]M2-(a;b;c)[Sc1:b:dsp]T1u(a) 0.00000
  17 Pm-3m[1/2,1/2,0]M2-(a;b;c)[Sc1:b:dsp]T1u(b) 0.00000
  18 Pm-3m[1/2,1/2,0]M2-(a;b;c)[Sc1:b:dsp]T1u(c) 0.00000
  19 Pm-3m[1/2,1/2,0]M5-(a,b;c,d;e,f)[Sc1:b:dsp]T1u(a) 0.00000
  20 Pm-3m[1/2,1/2,0]M5-(a,b;c,d;e,f)[Sc1:b:dsp]T1u(b) 0.00000
  21 Pm-3m[1/2,1/2,0]M5-(a,b;c,d;e,f)[Sc1:b:dsp]T1u(c) 0.00000
  22 Pm-3m[1/2,1/2,0]M5-(a,b;c,d;e,f)[Sc1:b:dsp]T1u(d) 0.00000
  23 Pm-3m[1/2,1/2,0]M5-(a,b;c,d;e,f)[Sc1:b:dsp]T1u(e) 0.00000
  24 Pm-3m[1/2,1/2,0]M5-(a,b;c,d;e,f)[Sc1:b:dsp]T1u(f) 0.00000
  25 Pm-3m[0,0,0]GM4-(a,b,c)[F1:c:dsp]A2u(a) 0.00000
  26 Pm-3m[0,0,0]GM4-(a,b,c)[F1:c:dsp]A2u(b) 0.00000
  27 Pm-3m[0,0,0]GM4-(a,b,c)[F1:c:dsp]A2u(c) 0.00000
  28 Pm-3m[0,0,0]GM4-(a,b,c)[F1:c:dsp]Eu(a) 0.00000
  29 Pm-3m[0,0,0]GM4-(a,b,c)[F1:c:dsp]Eu(b) 0.00000
  30 Pm-3m[0,0,0]GM4-(a,b,c)[F1:c:dsp]Eu(c) 0.00000
  31 Pm-3m[0,0,0]GM5-(a,b,c)[F1:c:dsp]Eu(a) 0.00000
  32 Pm-3m[0,0,0]GM5-(a,b,c)[F1:c:dsp]Eu(b) 0.00000
  33 Pm-3m[0,0,0]GM5-(a,b,c)[F1:c:dsp]Eu(c) 0.00000
  34 Pm-3m[1/2,1/2,1/2]R2-(a)[F1:c:dsp]A2u(a) 0.00000
  35 Pm-3m[1/2,1/2,1/2]R3-(a,b)[F1:c:dsp]A2u(a) 0.00000
  36 Pm-3m[1/2,1/2,1/2]R3-(a,b)[F1:c:dsp]A2u(b) 0.00000
  37 Pm-3m[1/2,1/2,1/2]R4-(a,b,c)[F1:c:dsp]Eu(a) 0.00000
  38 Pm-3m[1/2,1/2,1/2]R4-(a,b,c)[F1:c:dsp]Eu(b) 0.00000
  39 Pm-3m[1/2,1/2,1/2]R4-(a,b,c)[F1:c:dsp]Eu(c) 0.00000
  40 Pm-3m[1/2,1/2,1/2]R5-(a,b,c)[F1:c:dsp]Eu(a) 0.00000
  41 Pm-3m[1/2,1/2,1/2]R5-(a,b,c)[F1:c:dsp]Eu(b) 0.00000
  42 Pm-3m[1/2,1/2,1/2]R5-(a,b,c)[F1:c:dsp]Eu(c) 0.00000
  43 Pm-3m[0,1/2,0]X1+(a;b;c)[F1:c:dsp]Eu(a) 0.00000
  44 Pm-3m[0,1/2,0]X1+(a;b;c)[F1:c:dsp]Eu(b) 0.00000
  45 Pm-3m[0,1/2,0]X1+(a;b;c)[F1:c:dsp]Eu(c) 0.00000
  46 Pm-3m[0,1/2,0]X2+(a;b;c)[F1:c:dsp]Eu(a) 0.00000
  47 Pm-3m[0,1/2,0]X2+(a;b;c)[F1:c:dsp]Eu(b) 0.00000
  48 Pm-3m[0,1/2,0]X2+(a;b;c)[F1:c:dsp]Eu(c) 0.00000
  49 Pm-3m[0,1/2,0]X5+(a,b;c,d;e,f)[F1:c:dsp]A2u(a) 0.00000
  50 Pm-3m[0,1/2,0]X5+(a,b;c,d;e,f)[F1:c:dsp]A2u(b) 0.00000
  51 Pm-3m[0,1/2,0]X5+(a,b;c,d;e,f)[F1:c:dsp]A2u(c) 0.00000
  52 Pm-3m[0,1/2,0]X5+(a,b;c,d;e,f)[F1:c:dsp]A2u(d) 0.00000
  53 Pm-3m[0,1/2,0]X5+(a,b;c,d;e,f)[F1:c:dsp]A2u(e) 0.00000
  54 Pm-3m[0,1/2,0]X5+(a,b;c,d;e,f)[F1:c:dsp]A2u(f) 0.00000
  55 Pm-3m[0,1/2,0]X5+(a,b;c,d;e,f)[F1:c:dsp]Eu(a) 0.00000
  56 Pm-3m[0,1/2,0]X5+(a,b;c,d;e,f)[F1:c:dsp]Eu(b) 0.00000
  57 Pm-3m[0,1/2,0]X5+(a,b;c,d;e,f)[F1:c:dsp]Eu(c) 0.00000
  58 Pm-3m[0,1/2,0]X5+(a,b;c,d;e,f)[F1:c:dsp]Eu(d) 0.00000
  59 Pm-3m[0,1/2,0]X5+(a,b;c,d;e,f)[F1:c:dsp]Eu(e) 0.00000
  60 Pm-3m[0,1/2,0]X5+(a,b;c,d;e,f)[F1:c:dsp]Eu(f) 0.00000
  61 Pm-3m[0,1/2,0]X3-(a;b;c)[F1:c:dsp]A2u(a) 0.00000
  62 Pm-3m[0,1/2,0]X3-(a;b;c)[F1:c:dsp]A2u(b) 0.00000
  63 Pm-3m[0,1/2,0]X3-(a;b;c)[F1:c:dsp]A2u(c) 0.00000
  64 Pm-3m[0,1/2,0]X5-(a,b;c,d;e,f)[F1:c:dsp]Eu(a) 0.00000
  65 Pm-3m[0,1/2,0]X5-(a,b;c,d;e,f)[F1:c:dsp]Eu(b) 0.00000
  66 Pm-3m[0,1/2,0]X5-(a,b;c,d;e,f)[F1:c:dsp]Eu(c) 0.00000
  67 Pm-3m[0,1/2,0]X5-(a,b;c,d;e,f)[F1:c:dsp]Eu(d) 0.00000
  68 Pm-3m[0,1/2,0]X5-(a,b;c,d;e,f)[F1:c:dsp]Eu(e) 0.00000
  69 Pm-3m[0,1/2,0]X5-(a,b;c,d;e,f)[F1:c:dsp]Eu(f) 0.00000
  70 Pm-3m[1/2,1/2,0]M1+(a;b;c)[F1:c:dsp]Eu(a) 0.00000
  71 Pm-3m[1/2,1/2,0]M1+(a;b;c)[F1:c:dsp]Eu(b) 0.00000
  72 Pm-3m[1/2,1/2,0]M1+(a;b;c)[F1:c:dsp]Eu(c) 0.00000
  73 Pm-3m[1/2,1/2,0]M2+(a;b;c)[F1:c:dsp]Eu(a) 0.00000
  74 Pm-3m[1/2,1/2,0]M2+(a;b;c)[F1:c:dsp]Eu(b) 0.00000
  75 Pm-3m[1/2,1/2,0]M2+(a;b;c)[F1:c:dsp]Eu(c) 0.00000
  76 Pm-3m[1/2,1/2,0]M3+(a;b;c)[F1:c:dsp]A2u(a) 0.00000
  77 Pm-3m[1/2,1/2,0]M3+(a;b;c)[F1:c:dsp]A2u(b) 0.00000
  78 Pm-3m[1/2,1/2,0]M3+(a;b;c)[F1:c:dsp]A2u(c) 0.00000
  79 Pm-3m[1/2,1/2,0]M4+(a;b;c)[F1:c:dsp]A2u(a) 0.00000
  80 Pm-3m[1/2,1/2,0]M4+(a;b;c)[F1:c:dsp]A2u(b) 0.00000
  81 Pm-3m[1/2,1/2,0]M4+(a;b;c)[F1:c:dsp]A2u(c) 0.00000
  82 Pm-3m[1/2,1/2,0]M5+(a,b;c,d;e,f)[F1:c:dsp]Eu(a) 0.00000
  83 Pm-3m[1/2,1/2,0]M5+(a,b;c,d;e,f)[F1:c:dsp]Eu(b) 0.00000
  84 Pm-3m[1/2,1/2,0]M5+(a,b;c,d;e,f)[F1:c:dsp]Eu(c) 0.00000
  85 Pm-3m[1/2,1/2,0]M5+(a,b;c,d;e,f)[F1:c:dsp]Eu(d) 0.00000
  86 Pm-3m[1/2,1/2,0]M5+(a,b;c,d;e,f)[F1:c:dsp]Eu(e) 0.00000
  87 Pm-3m[1/2,1/2,0]M5+(a,b;c,d;e,f)[F1:c:dsp]Eu(f) 0.00000
  88 Pm-3m[1/2,1/2,0]M2-(a;b;c)[F1:c:dsp]A2u(a) 0.00000
  89 Pm-3m[1/2,1/2,0]M2-(a;b;c)[F1:c:dsp]A2u(b) 0.00000
  90 Pm-3m[1/2,1/2,0]M2-(a;b;c)[F1:c:dsp]A2u(c) 0.00000
  91 Pm-3m[1/2,1/2,0]M5-(a,b;c,d;e,f)[F1:c:dsp]Eu(a) 0.00000
  92 Pm-3m[1/2,1/2,0]M5-(a,b;c,d;e,f)[F1:c:dsp]Eu(b) 0.00000
  93 Pm-3m[1/2,1/2,0]M5-(a,b;c,d;e,f)[F1:c:dsp]Eu(c) 0.00000
  94 Pm-3m[1/2,1/2,0]M5-(a,b;c,d;e,f)[F1:c:dsp]Eu(d) 0.00000
  95 Pm-3m[1/2,1/2,0]M5-(a,b;c,d;e,f)[F1:c:dsp]Eu(e) 0.00000
  96 Pm-3m[1/2,1/2,0]M5-(a,b;c,d;e,f)[F1:c:dsp]Eu(f) 0.00000

loop_
_iso_displacivemodenorm_ID
_iso_displacivemodenorm_value
   1 0.04406
   2 0.04406
   3 0.04406
   4 0.04406
   5 0.04406
   6 0.04406
   7 0.04406
   8 0.04406
   9 0.04406
  10 0.04406
  11 0.04406
  12 0.04406
  13 0.04406
  14 0.04406
  15 0.04406
  16 0.04406
  17 0.04406
  18 0.04406
  19 0.04406
  20 0.04406
  21 0.04406
  22 0.04406
  23 0.04406
  24 0.04406
  25 0.04406
  26 0.04406
  27 0.04406
  28 0.03115
  29 0.03115
  30 0.03115
  31 0.03115
  32 0.03115
  33 0.03115
  34 0.02544
  35 0.03597
  36 0.03115
  37 0.03115
  38 0.03115
  39 0.03115
  40 0.03115
  41 0.03115
  42 0.03115
  43 0.03115
  44 0.03115
  45 0.03115
  46 0.03115
  47 0.03115
  48 0.03115
  49 0.04406
  50 0.04406
  51 0.04406
  52 0.04406
  53 0.04406
  54 0.04406
  55 0.04406
  56 0.04406
  57 0.04406
  58 0.04406
  59 0.04406
  60 0.04406
  61 0.04406
  62 0.04406
  63 0.04406
  64 0.04406
  65 0.04406
  66 0.04406
  67 0.04406
  68 0.04406
  69 0.04406
  70 0.03115
  71 0.03115
  72 0.03115
  73 0.03115
  74 0.03115
  75 0.03115
  76 0.03115
  77 0.03115
  78 0.03115
  79 0.03115
  80 0.03115
  81 0.03115
  82 0.04406
  83 0.04406
  84 0.04406
  85 0.04406
  86 0.04406
  87 0.04406
  88 0.04406
  89 0.04406
  90 0.04406
  91 0.04406
  92 0.04406
  93 0.04406
  94 0.04406
  95 0.04406
  96 0.04406

loop_
_iso_deltacoordinate_ID
_iso_deltacoordinate_label
_iso_deltacoordinate_value
   1 Sc1_1_dx   0.00000
   2 Sc1_1_dy   0.00000
   3 Sc1_1_dz   0.00000
   4 Sc1_2_dx   0.00000
   5 Sc1_2_dy   0.00000
   6 Sc1_2_dz   0.00000
   7 Sc1_3_dx   0.00000
   8 Sc1_3_dy   0.00000
   9 Sc1_3_dz   0.00000
  10 Sc1_4_dx   0.00000
  11 Sc1_4_dy   0.00000
  12 Sc1_4_dz   0.00000
  13 Sc1_5_dx   0.00000
  14 Sc1_5_dy   0.00000
  15 Sc1_5_dz   0.00000
  16 Sc1_6_dx   0.00000
  17 Sc1_6_dy   0.00000
  18 Sc1_6_dz   0.00000
  19 Sc1_7_dx   0.00000
  20 Sc1_7_dy   0.00000
  21 Sc1_7_dz   0.00000
  22 Sc1_8_dx   0.00000
  23 Sc1_8_dy   0.00000
  24 Sc1_8_dz   0.00000
  25 F1_1_dx   0.00000
  26 F1_1_dy   0.00000
  27 F1_1_dz   0.00000
  28 F1_2_dx   0.00000
  29 F1_2_dy   0.00000
  30 F1_2_dz   0.00000
  31 F1_3_dx   0.00000
  32 F1_3_dy   0.00000
  33 F1_3_dz   0.00000
  34 F1_4_dx   0.00000
  35 F1_4_dy   0.00000
  36 F1_4_dz   0.00000
  37 F1_5_dx   0.00000
  38 F1_5_dy   0.00000
  39 F1_5_dz   0.00000
  40 F1_6_dx   0.00000
  41 F1_6_dy   0.00000
  42 F1_6_dz   0.00000
  43 F1_7_dx   0.00000
  44 F1_7_dy   0.00000
  45 F1_7_dz   0.00000
  46 F1_8_dx   0.00000
  47 F1_8_dy   0.00000
  48 F1_8_dz   0.00000
  49 F1_9_dx   0.00000
  50 F1_9_dy   0.00000
  51 F1_9_dz   0.00000
  52 F1_10_dx   0.00000
  53 F1_10_dy   0.00000
  54 F1_10_dz   0.00000
  55 F1_11_dx   0.00000
  56 F1_11_dy   0.00000
  57 F1_11_dz   0.00000
  58 F1_12_dx   0.00000
  59 F1_12_dy   0.00000
  60 F1_12_dz   0.00000
  61 F1_13_dx   0.00000
  62 F1_13_dy   0.00000
  63 F1_13_dz   0.00000
  64 F1_14_dx   0.00000
  65 F1_14_dy   0.00000
  66 F1_14_dz   0.00000
  67 F1_15_dx   0.00000
  68 F1_15_dy   0.00000
  69 F1_15_dz   0.00000
  70 F1_16_dx   0.00000
  71 F1_16_dy   0.00000
  72 F1_16_dz   0.00000
  73 F1_17_dx   0.00000
  74 F1_17_dy   0.00000
  75 F1_17_dz   0.00000
  76 F1_18_dx   0.00000
  77 F1_18_dy   0.00000
  78 F1_18_dz   0.00000
  79 F1_19_dx   0.00000
  80 F1_19_dy   0.00000
  81 F1_19_dz   0.00000
  82 F1_20_dx   0.00000
  83 F1_20_dy   0.00000
  84 F1_20_dz   0.00000
  85 F1_21_dx   0.00000
  86 F1_21_dy   0.00000
  87 F1_21_dz   0.00000
  88 F1_22_dx   0.00000
  89 F1_22_dy   0.00000
  90 F1_22_dz   0.00000
  91 F1_23_dx   0.00000
  92 F1_23_dy   0.00000
  93 F1_23_dz   0.00000
  94 F1_24_dx   0.00000
  95 F1_24_dy   0.00000
  96 F1_24_dz   0.00000

loop_
_iso_coordinate_label
_iso_coordinate_formula
Sc1_1_x                 "1/4 + Sc1_1_dx"
Sc1_1_y                 "1/4 + Sc1_1_dy"
Sc1_1_z                 "3/4 + Sc1_1_dz"
Sc1_2_x                 "1/4 + Sc1_2_dx"
Sc1_2_y                 "1/4 + Sc1_2_dy"
Sc1_2_z                 "1/4 + Sc1_2_dz"
Sc1_3_x                 "1/4 + Sc1_3_dx"
Sc1_3_y                 "3/4 + Sc1_3_dy"
Sc1_3_z                 "3/4 + Sc1_3_dz"
Sc1_4_x                 "1/4 + Sc1_4_dx"
Sc1_4_y                 "3/4 + Sc1_4_dy"
Sc1_4_z                 "1/4 + Sc1_4_dz"
Sc1_5_x                 "3/4 + Sc1_5_dx"
Sc1_5_y                 "1/4 + Sc1_5_dy"
Sc1_5_z                 "3/4 + Sc1_5_dz"
Sc1_6_x                 "3/4 + Sc1_6_dx"
Sc1_6_y                 "1/4 + Sc1_6_dy"
Sc1_6_z                 "1/4 + Sc1_6_dz"
Sc1_7_x                 "3/4 + Sc1_7_dx"
Sc1_7_y                 "3/4 + Sc1_7_dy"
Sc1_7_z                 "3/4 + Sc1_7_dz"
Sc1_8_x                 "3/4 + Sc1_8_dx"
Sc1_8_y                 "3/4 + Sc1_8_dy"
Sc1_8_z                 "1/4 + Sc1_8_dz"
F1_1_x                  "1/4 + F1_1_dx"
F1_1_y                  "1/4 + F1_1_dy"
F1_1_z                  "0 + F1_1_dz"
F1_2_x                  "1/4 + F1_2_dx"
F1_2_y                  "1/4 + F1_2_dy"
F1_2_z                  "1/2 + F1_2_dz"
F1_3_x                  "1/4 + F1_3_dx"
F1_3_y                  "3/4 + F1_3_dy"
F1_3_z                  "0 + F1_3_dz"
F1_4_x                  "1/4 + F1_4_dx"
F1_4_y                  "3/4 + F1_4_dy"
F1_4_z                  "1/2 + F1_4_dz"
F1_5_x                  "3/4 + F1_5_dx"
F1_5_y                  "1/4 + F1_5_dy"
F1_5_z                  "0 + F1_5_dz"
F1_6_x                  "3/4 + F1_6_dx"
F1_6_y                  "1/4 + F1_6_dy"
F1_6_z                  "1/2 + F1_6_dz"
F1_7_x                  "3/4 + F1_7_dx"
F1_7_y                  "3/4 + F1_7_dy"
F1_7_z                  "0 + F1_7_dz"
F1_8_x                  "3/4 + F1_8_dx"
F1_8_y                  "3/4 + F1_8_dy"
F1_8_z                  "1/2 + F1_8_dz"
F1_9_x                  "0 + F1_9_dx"
F1_9_y                  "1/4 + F1_9_dy"
F1_9_z                  "3/4 + F1_9_dz"
F1_10_x                 "0 + F1_10_dx"
F1_10_y                 "1/4 + F1_10_dy"
F1_10_z                 "1/4 + F1_10_dz"
F1_11_x                 "0 + F1_11_dx"
F1_11_y                 "3/4 + F1_11_dy"
F1_11_z                 "3/4 + F1_11_dz"
F1_12_x                 "0 + F1_12_dx"
F1_12_y                 "3/4 + F1_12_dy"
F1_12_z                 "1/4 + F1_12_dz"
F1_13_x                 "1/2 + F1_13_dx"
F1_13_y                 "1/4 + F1_13_dy"
F1_13_z                 "3/4 + F1_13_dz"
F1_14_x                 "1/2 + F1_14_dx"
F1_14_y                 "1/4 + F1_14_dy"
F1_14_z                 "1/4 + F1_14_dz"
F1_15_x                 "1/2 + F1_15_dx"
F1_15_y                 "3/4 + F1_15_dy"
F1_15_z                 "3/4 + F1_15_dz"
F1_16_x                 "1/2 + F1_16_dx"
F1_16_y                 "3/4 + F1_16_dy"
F1_16_z                 "1/4 + F1_16_dz"
F1_17_x                 "1/4 + F1_17_dx"
F1_17_y                 "0 + F1_17_dy"
F1_17_z                 "3/4 + F1_17_dz"
F1_18_x                 "1/4 + F1_18_dx"
F1_18_y                 "0 + F1_18_dy"
F1_18_z                 "1/4 + F1_18_dz"
F1_19_x                 "1/4 + F1_19_dx"
F1_19_y                 "1/2 + F1_19_dy"
F1_19_z                 "3/4 + F1_19_dz"
F1_20_x                 "1/4 + F1_20_dx"
F1_20_y                 "1/2 + F1_20_dy"
F1_20_z                 "1/4 + F1_20_dz"
F1_21_x                 "3/4 + F1_21_dx"
F1_21_y                 "0 + F1_21_dy"
F1_21_z                 "3/4 + F1_21_dz"
F1_22_x                 "3/4 + F1_22_dx"
F1_22_y                 "0 + F1_22_dy"
F1_22_z                 "1/4 + F1_22_dz"
F1_23_x                 "3/4 + F1_23_dx"
F1_23_y                 "1/2 + F1_23_dy"
F1_23_z                 "3/4 + F1_23_dz"
F1_24_x                 "3/4 + F1_24_dx"
F1_24_y                 "1/2 + F1_24_dy"
F1_24_z                 "1/4 + F1_24_dz"

# matrix conversion: deltacoords(lattice units) = matrix.(modeamplitudes*modenormfactors)
# Square matrix with _iso_displacivemode_number rows and columns

loop_
_iso_displacivemodematrix_row
_iso_displacivemodematrix_col
_iso_displacivemodematrix_value
    1    3   1.00000
    1    4   1.00000
    1    9   1.00000
    1   11  -1.00000
    1   12   1.00000
    1   16   1.00000
    1   22   1.00000
    1   23   1.00000
    2    2   1.00000
    2    6   1.00000
    2    7   1.00000
    2   13  -1.00000
    2   14   1.00000
    2   17   1.00000
    2   19   1.00000
    2   24   1.00000
    3    1  -1.00000
    3    5  -1.00000
    3    8  -1.00000
    3   10  -1.00000
    3   15   1.00000
    3   18  -1.00000
    3   20  -1.00000
    3   21  -1.00000
    4    3   1.00000
    4    4  -1.00000
    4    9   1.00000
    4   11  -1.00000
    4   12  -1.00000
    4   16  -1.00000
    4   22  -1.00000
    4   23   1.00000
    5    2   1.00000
    5    6  -1.00000
    5    7   1.00000
    5   13   1.00000
    5   14   1.00000
    5   17  -1.00000
    5   19  -1.00000
    5   24   1.00000
    6    1  -1.00000
    6    5   1.00000
    6    8   1.00000
    6   10  -1.00000
    6   15   1.00000
    6   18  -1.00000
    6   20   1.00000
    6   21   1.00000
    7    3   1.00000
    7    4  -1.00000
    7    9   1.00000
    7   11   1.00000
    7   12   1.00000
    7   16  -1.00000
    7   22   1.00000
    7   23  -1.00000
    8    2   1.00000
    8    6  -1.00000
    8    7  -1.00000
    8   13  -1.00000
    8   14   1.00000
    8   17   1.00000
    8   19  -1.00000
    8   24  -1.00000
    9    1  -1.00000
    9    5   1.00000
    9    8  -1.00000
    9   10   1.00000
    9   15   1.00000
    9   18   1.00000
    9   20   1.00000
    9   21  -1.00000
   10    3   1.00000
   10    4   1.00000
   10    9   1.00000
   10   11   1.00000
   10   12  -1.00000
   10   16   1.00000
   10   22  -1.00000
   10   23  -1.00000
   11    2   1.00000
   11    6   1.00000
   11    7  -1.00000
   11   13   1.00000
   11   14   1.00000
   11   17  -1.00000
   11   19   1.00000
   11   24  -1.00000
   12    1  -1.00000
   12    5  -1.00000
   12    8   1.00000
   12   10   1.00000
   12   15   1.00000
   12   18   1.00000
   12   20  -1.00000
   12   21   1.00000
   13    3   1.00000
   13    4  -1.00000
   13    9  -1.00000
   13   11  -1.00000
   13   12   1.00000
   13   16   1.00000
   13   22  -1.00000
   13   23  -1.00000
   14    2   1.00000
   14    6  -1.00000
   14    7   1.00000
   14   13  -1.00000
   14   14  -1.00000
   14   17  -1.00000
   14   19   1.00000
   14   24  -1.00000
   15    1  -1.00000
   15    5   1.00000
   15    8  -1.00000
   15   10  -1.00000
   15   15  -1.00000
   15   18   1.00000
   15   20  -1.00000
   15   21   1.00000
   16    3   1.00000
   16    4   1.00000
   16    9  -1.00000
   16   11  -1.00000
   16   12  -1.00000
   16   16  -1.00000
   16   22   1.00000
   16   23  -1.00000
   17    2   1.00000
   17    6   1.00000
   17    7   1.00000
   17   13   1.00000
   17   14  -1.00000
   17   17   1.00000
   17   19  -1.00000
   17   24  -1.00000
   18    1  -1.00000
   18    5  -1.00000
   18    8   1.00000
   18   10  -1.00000
   18   15  -1.00000
   18   18   1.00000
   18   20   1.00000
   18   21  -1.00000
   19    3   1.00000
   19    4   1.00000
   19    9  -1.00000
   19   11   1.00000
   19   12   1.00000
   19   16  -1.00000
   19   22  -1.00000
   19   23   1.00000
   20    2   1.00000
   20    6   1.00000
   20    7  -1.00000
   20   13  -1.00000
   20   14  -1.00000
   20   17  -1.00000
   20   19  -1.00000
   20   24   1.00000
   21    1  -1.00000
   21    5  -1.00000
   21    8  -1.00000
   21   10   1.00000
   21   15  -1.00000
   21   18  -1.00000
   21   20   1.00000
   21   21   1.00000
   22    3   1.00000
   22    4  -1.00000
   22    9  -1.00000
   22   11   1.00000
   22   12  -1.00000
   22   16   1.00000
   22   22   1.00000
   22   23   1.00000
   23    2   1.00000
   23    6  -1.00000
   23    7  -1.00000
   23   13   1.00000
   23   14  -1.00000
   23   17   1.00000
   23   19   1.00000
   23   24   1.00000
   24    1  -1.00000
   24    5   1.00000
   24    8   1.00000
   24   10   1.00000
   24   15  -1.00000
   24   18  -1.00000
   24   20  -1.00000
   24   21  -1.00000
   25   30   1.00000
   25   31  -1.00000
   25   39   1.00000
   25   42  -1.00000
   25   45   1.00000
   25   48  -1.00000
   25   56  -1.00000
   25   67   1.00000
   25   71   1.00000
   25   74  -1.00000
   25   82  -1.00000
   25   95  -1.00000
   26   29   1.00000
   26   33   1.00000
   26   37   1.00000
   26   40   1.00000
   26   43   1.00000
   26   46   1.00000
   26   59   1.00000
   26   66   1.00000
   26   70   1.00000
   26   73   1.00000
   26   85   1.00000
   26   96  -1.00000
   27   25  -1.00000
   27   34  -1.00000
   27   35  -0.50000
   27   36  -1.00000
   27   49  -1.00000
   27   54   1.00000
   27   62  -1.00000
   27   76  -1.00000
   27   77   1.00000
   27   79  -1.00000
   27   80  -1.00000
   27   90  -1.00000
   28   30   1.00000
   28   31  -1.00000
   28   39  -1.00000
   28   42   1.00000
   28   45   1.00000
   28   48  -1.00000
   28   56  -1.00000
   28   67  -1.00000
   28   71  -1.00000
   28   74   1.00000
   28   82   1.00000
   28   95  -1.00000
   29   29   1.00000
   29   33   1.00000
   29   37  -1.00000
   29   40  -1.00000
   29   43   1.00000
   29   46   1.00000
   29   59   1.00000
   29   66  -1.00000
   29   70  -1.00000
   29   73  -1.00000
   29   85  -1.00000
   29   96  -1.00000
   30   25  -1.00000
   30   34   1.00000
   30   35   0.50000
   30   36   1.00000
   30   49  -1.00000
   30   54   1.00000
   30   62   1.00000
   30   76   1.00000
   30   77  -1.00000
   30   79   1.00000
   30   80   1.00000
   30   90  -1.00000
   31   30   1.00000
   31   31  -1.00000
   31   39  -1.00000
   31   42   1.00000
   31   45   1.00000
   31   48  -1.00000
   31   56   1.00000
   31   67   1.00000
   31   71   1.00000
   31   74  -1.00000
   31   82   1.00000
   31   95   1.00000
   32   29   1.00000
   32   33   1.00000
   32   37  -1.00000
   32   40  -1.00000
   32   43  -1.00000
   32   46  -1.00000
   32   59   1.00000
   32   66   1.00000
   32   70  -1.00000
   32   73  -1.00000
   32   85   1.00000
   32   96   1.00000
   33   25  -1.00000
   33   34   1.00000
   33   35   0.50000
   33   36   1.00000
   33   49   1.00000
   33   54   1.00000
   33   62  -1.00000
   33   76   1.00000
   33   77   1.00000
   33   79   1.00000
   33   80  -1.00000
   33   90   1.00000
   34   30   1.00000
   34   31  -1.00000
   34   39   1.00000
   34   42  -1.00000
   34   45   1.00000
   34   48  -1.00000
   34   56   1.00000
   34   67  -1.00000
   34   71  -1.00000
   34   74   1.00000
   34   82  -1.00000
   34   95   1.00000
   35   29   1.00000
   35   33   1.00000
   35   37   1.00000
   35   40   1.00000
   35   43  -1.00000
   35   46  -1.00000
   35   59   1.00000
   35   66  -1.00000
   35   70   1.00000
   35   73   1.00000
   35   85  -1.00000
   35   96   1.00000
   36   25  -1.00000
   36   34  -1.00000
   36   35  -0.50000
   36   36  -1.00000
   36   49   1.00000
   36   54   1.00000
   36   62   1.00000
   36   76  -1.00000
   36   77  -1.00000
   36   79  -1.00000
   36   80   1.00000
   36   90   1.00000
   37   30   1.00000
   37   31  -1.00000
   37   39  -1.00000
   37   42   1.00000
   37   45  -1.00000
   37   48   1.00000
   37   56  -1.00000
   37   67   1.00000
   37   71  -1.00000
   37   74   1.00000
   37   82  -1.00000
   37   95   1.00000
   38   29   1.00000
   38   33   1.00000
   38   37  -1.00000
   38   40  -1.00000
   38   43   1.00000
   38   46   1.00000
   38   59  -1.00000
   38   66   1.00000
   38   70   1.00000
   38   73   1.00000
   38   85  -1.00000
   38   96   1.00000
   39   25  -1.00000
   39   34   1.00000
   39   35   0.50000
   39   36   1.00000
   39   49  -1.00000
   39   54  -1.00000
   39   62  -1.00000
   39   76  -1.00000
   39   77  -1.00000
   39   79  -1.00000
   39   80   1.00000
   39   90   1.00000
   40   30   1.00000
   40   31  -1.00000
   40   39   1.00000
   40   42  -1.00000
   40   45  -1.00000
   40   48   1.00000
   40   56  -1.00000
   40   67  -1.00000
   40   71   1.00000
   40   74  -1.00000
   40   82   1.00000
   40   95   1.00000
   41   29   1.00000
   41   33   1.00000
   41   37   1.00000
   41   40   1.00000
   41   43   1.00000
   41   46   1.00000
   41   59  -1.00000
   41   66  -1.00000
   41   70  -1.00000
   41   73  -1.00000
   41   85   1.00000
   41   96   1.00000
   42   25  -1.00000
   42   34  -1.00000
   42   35  -0.50000
   42   36  -1.00000
   42   49  -1.00000
   42   54  -1.00000
   42   62   1.00000
   42   76   1.00000
   42   77   1.00000
   42   79   1.00000
   42   80  -1.00000
   42   90   1.00000
   43   30   1.00000
   43   31  -1.00000
   43   39   1.00000
   43   42  -1.00000
   43   45  -1.00000
   43   48   1.00000
   43   56   1.00000
   43   67   1.00000
   43   71  -1.00000
   43   74   1.00000
   43   82   1.00000
   43   95  -1.00000
   44   29   1.00000
   44   33   1.00000
   44   37   1.00000
   44   40   1.00000
   44   43  -1.00000
   44   46  -1.00000
   44   59  -1.00000
   44   66   1.00000
   44   70  -1.00000
   44   73  -1.00000
   44   85  -1.00000
   44   96  -1.00000
   45   25  -1.00000
   45   34  -1.00000
   45   35  -0.50000
   45   36  -1.00000
   45   49   1.00000
   45   54  -1.00000
   45   62  -1.00000
   45   76   1.00000
   45   77  -1.00000
   45   79   1.00000
   45   80   1.00000
   45   90  -1.00000
   46   30   1.00000
   46   31  -1.00000
   46   39  -1.00000
   46   42   1.00000
   46   45  -1.00000
   46   48   1.00000
   46   56   1.00000
   46   67  -1.00000
   46   71   1.00000
   46   74  -1.00000
   46   82  -1.00000
   46   95  -1.00000
   47   29   1.00000
   47   33   1.00000
   47   37  -1.00000
   47   40  -1.00000
   47   43  -1.00000
   47   46  -1.00000
   47   59  -1.00000
   47   66  -1.00000
   47   70   1.00000
   47   73   1.00000
   47   85   1.00000
   47   96  -1.00000
   48   25  -1.00000
   48   34   1.00000
   48   35   0.50000
   48   36   1.00000
   48   49   1.00000
   48   54  -1.00000
   48   62   1.00000
   48   76  -1.00000
   48   77   1.00000
   48   79  -1.00000
   48   80  -1.00000
   48   90  -1.00000
   49   27   1.00000
   49   34   1.00000
   49   35  -1.00000
   49   50  -1.00000
   49   51   1.00000
   49   63   1.00000
   49   77   1.00000
   49   78  -1.00000
   49   80   1.00000
   49   81   1.00000
   49   88   1.00000
   50   29   1.00000
   50   33  -1.00000
   50   38   1.00000
   50   41  -1.00000
   50   43   1.00000
   50   46  -1.00000
   50   58  -1.00000
   50   69   1.00000
   50   72   1.00000
   50   75  -1.00000
   50   84  -1.00000
   50   91  -1.00000
   51   28  -1.00000
   51   32  -1.00000
   51   39  -1.00000
   51   42  -1.00000
   51   44  -1.00000
   51   47  -1.00000
   51   55  -1.00000
   51   68  -1.00000
   51   71  -1.00000
   51   74  -1.00000
   51   87  -1.00000
   51   92   1.00000
   52   27   1.00000
   52   34  -1.00000
   52   35   1.00000
   52   50  -1.00000
   52   51  -1.00000
   52   63   1.00000
   52   77  -1.00000
   52   78  -1.00000
   52   80  -1.00000
   52   81   1.00000
   52   88  -1.00000
   53   29   1.00000
   53   33  -1.00000
   53   38  -1.00000
   53   41   1.00000
   53   43   1.00000
   53   46  -1.00000
   53   58   1.00000
   53   69   1.00000
   53   72   1.00000
   53   75  -1.00000
   53   84   1.00000
   53   91   1.00000
   54   28  -1.00000
   54   32  -1.00000
   54   39   1.00000
   54   42   1.00000
   54   44   1.00000
   54   47   1.00000
   54   55  -1.00000
   54   68  -1.00000
   54   71   1.00000
   54   74   1.00000
   54   87  -1.00000
   54   92  -1.00000
   55   27   1.00000
   55   34  -1.00000
   55   35   1.00000
   55   50   1.00000
   55   51   1.00000
   55   63   1.00000
   55   77   1.00000
   55   78   1.00000
   55   80   1.00000
   55   81  -1.00000
   55   88  -1.00000
   56   29   1.00000
   56   33  -1.00000
   56   38  -1.00000
   56   41   1.00000
   56   43  -1.00000
   56   46   1.00000
   56   58  -1.00000
   56   69   1.00000
   56   72  -1.00000
   56   75   1.00000
   56   84  -1.00000
   56   91   1.00000
   57   28  -1.00000
   57   32  -1.00000
   57   39   1.00000
   57   42   1.00000
   57   44  -1.00000
   57   47  -1.00000
   57   55   1.00000
   57   68  -1.00000
   57   71  -1.00000
   57   74  -1.00000
   57   87   1.00000
   57   92  -1.00000
   58   27   1.00000
   58   34   1.00000
   58   35  -1.00000
   58   50   1.00000
   58   51  -1.00000
   58   63   1.00000
   58   77  -1.00000
   58   78   1.00000
   58   80  -1.00000
   58   81  -1.00000
   58   88   1.00000
   59   29   1.00000
   59   33  -1.00000
   59   38   1.00000
   59   41  -1.00000
   59   43  -1.00000
   59   46   1.00000
   59   58   1.00000
   59   69   1.00000
   59   72  -1.00000
   59   75   1.00000
   59   84   1.00000
   59   91  -1.00000
   60   28  -1.00000
   60   32  -1.00000
   60   39  -1.00000
   60   42  -1.00000
   60   44   1.00000
   60   47   1.00000
   60   55   1.00000
   60   68  -1.00000
   60   71   1.00000
   60   74   1.00000
   60   87   1.00000
   60   92   1.00000
   61   27   1.00000
   61   34  -1.00000
   61   35   1.00000
   61   50  -1.00000
   61   51   1.00000
   61   63  -1.00000
   61   77  -1.00000
   61   78   1.00000
   61   80  -1.00000
   61   81  -1.00000
   61   88   1.00000
   62   29   1.00000
   62   33  -1.00000
   62   38  -1.00000
   62   41   1.00000
   62   43   1.00000
   62   46  -1.00000
   62   58  -1.00000
   62   69  -1.00000
   62   72  -1.00000
   62   75   1.00000
   62   84   1.00000
   62   91  -1.00000
   63   28  -1.00000
   63   32  -1.00000
   63   39   1.00000
   63   42   1.00000
   63   44  -1.00000
   63   47  -1.00000
   63   55  -1.00000
   63   68   1.00000
   63   71   1.00000
   63   74   1.00000
   63   87   1.00000
   63   92   1.00000
   64   27   1.00000
   64   34   1.00000
   64   35  -1.00000
   64   50  -1.00000
   64   51  -1.00000
   64   63  -1.00000
   64   77   1.00000
   64   78   1.00000
   64   80   1.00000
   64   81  -1.00000
   64   88  -1.00000
   65   29   1.00000
   65   33  -1.00000
   65   38   1.00000
   65   41  -1.00000
   65   43   1.00000
   65   46  -1.00000
   65   58   1.00000
   65   69  -1.00000
   65   72  -1.00000
   65   75   1.00000
   65   84  -1.00000
   65   91   1.00000
   66   28  -1.00000
   66   32  -1.00000
   66   39  -1.00000
   66   42  -1.00000
   66   44   1.00000
   66   47   1.00000
   66   55  -1.00000
   66   68   1.00000
   66   71  -1.00000
   66   74  -1.00000
   66   87   1.00000
   66   92  -1.00000
   67   27   1.00000
   67   34   1.00000
   67   35  -1.00000
   67   50   1.00000
   67   51   1.00000
   67   63  -1.00000
   67   77  -1.00000
   67   78  -1.00000
   67   80  -1.00000
   67   81   1.00000
   67   88  -1.00000
   68   29   1.00000
   68   33  -1.00000
   68   38   1.00000
   68   41  -1.00000
   68   43  -1.00000
   68   46   1.00000
   68   58  -1.00000
   68   69  -1.00000
   68   72   1.00000
   68   75  -1.00000
   68   84   1.00000
   68   91   1.00000
   69   28  -1.00000
   69   32  -1.00000
   69   39  -1.00000
   69   42  -1.00000
   69   44  -1.00000
   69   47  -1.00000
   69   55   1.00000
   69   68   1.00000
   69   71   1.00000
   69   74   1.00000
   69   87  -1.00000
   69   92  -1.00000
   70   27   1.00000
   70   34  -1.00000
   70   35   1.00000
   70   50   1.00000
   70   51  -1.00000
   70   63  -1.00000
   70   77   1.00000
   70   78  -1.00000
   70   80   1.00000
   70   81   1.00000
   70   88   1.00000
   71   29   1.00000
   71   33  -1.00000
   71   38  -1.00000
   71   41   1.00000
   71   43  -1.00000
   71   46   1.00000
   71   58   1.00000
   71   69  -1.00000
   71   72   1.00000
   71   75  -1.00000
   71   84  -1.00000
   71   91  -1.00000
   72   28  -1.00000
   72   32  -1.00000
   72   39   1.00000
   72   42   1.00000
   72   44   1.00000
   72   47   1.00000
   72   55   1.00000
   72   68   1.00000
   72   71  -1.00000
   72   74  -1.00000
   72   87  -1.00000
   72   92   1.00000
   73   30   1.00000
   73   31   1.00000
   73   38   1.00000
   73   41   1.00000
   73   45   1.00000
   73   48   1.00000
   73   57   1.00000
   73   64   1.00000
   73   72   1.00000
   73   75   1.00000
   73   83   1.00000
   73   94  -1.00000
   74   26   1.00000
   74   34   1.00000
   74   35   0.50000
   74   36  -1.00000
   74   52  -1.00000
   74   53   1.00000
   74   61   1.00000
   74   76  -1.00000
   74   78   1.00000
   74   79   1.00000
   74   81   1.00000
   74   89   1.00000
   75   28  -1.00000
   75   32   1.00000
   75   37  -1.00000
   75   40   1.00000
   75   44  -1.00000
   75   47   1.00000
   75   60   1.00000
   75   65  -1.00000
   75   70  -1.00000
   75   73   1.00000
   75   86   1.00000
   75   93   1.00000
   76   30   1.00000
   76   31   1.00000
   76   38  -1.00000
   76   41  -1.00000
   76   45   1.00000
   76   48   1.00000
   76   57  -1.00000
   76   64   1.00000
   76   72   1.00000
   76   75   1.00000
   76   83  -1.00000
   76   94   1.00000
   77   26   1.00000
   77   34  -1.00000
   77   35  -0.50000
   77   36   1.00000
   77   52   1.00000
   77   53   1.00000
   77   61   1.00000
   77   76   1.00000
   77   78   1.00000
   77   79  -1.00000
   77   81   1.00000
   77   89  -1.00000
   78   28  -1.00000
   78   32   1.00000
   78   37   1.00000
   78   40  -1.00000
   78   44   1.00000
   78   47  -1.00000
   78   60   1.00000
   78   65  -1.00000
   78   70   1.00000
   78   73  -1.00000
   78   86   1.00000
   78   93  -1.00000
   79   30   1.00000
   79   31   1.00000
   79   38  -1.00000
   79   41  -1.00000
   79   45   1.00000
   79   48   1.00000
   79   57   1.00000
   79   64  -1.00000
   79   72  -1.00000
   79   75  -1.00000
   79   83  -1.00000
   79   94  -1.00000
   80   26   1.00000
   80   34  -1.00000
   80   35  -0.50000
   80   36   1.00000
   80   52  -1.00000
   80   53   1.00000
   80   61  -1.00000
   80   76   1.00000
   80   78  -1.00000
   80   79  -1.00000
   80   81  -1.00000
   80   89   1.00000
   81   28  -1.00000
   81   32   1.00000
   81   37   1.00000
   81   40  -1.00000
   81   44  -1.00000
   81   47   1.00000
   81   60   1.00000
   81   65   1.00000
   81   70   1.00000
   81   73  -1.00000
   81   86  -1.00000
   81   93   1.00000
   82   30   1.00000
   82   31   1.00000
   82   38   1.00000
   82   41   1.00000
   82   45   1.00000
   82   48   1.00000
   82   57  -1.00000
   82   64  -1.00000
   82   72  -1.00000
   82   75  -1.00000
   82   83   1.00000
   82   94   1.00000
   83   26   1.00000
   83   34   1.00000
   83   35   0.50000
   83   36  -1.00000
   83   52   1.00000
   83   53   1.00000
   83   61  -1.00000
   83   76  -1.00000
   83   78  -1.00000
   83   79   1.00000
   83   81  -1.00000
   83   89  -1.00000
   84   28  -1.00000
   84   32   1.00000
   84   37  -1.00000
   84   40   1.00000
   84   44   1.00000
   84   47  -1.00000
   84   60   1.00000
   84   65   1.00000
   84   70  -1.00000
   84   73   1.00000
   84   86  -1.00000
   84   93  -1.00000
   85   30   1.00000
   85   31   1.00000
   85   38  -1.00000
   85   41  -1.00000
   85   45  -1.00000
   85   48  -1.00000
   85   57   1.00000
   85   64   1.00000
   85   72  -1.00000
   85   75  -1.00000
   85   83   1.00000
   85   94   1.00000
   86   26   1.00000
   86   34  -1.00000
   86   35  -0.50000
   86   36   1.00000
   86   52  -1.00000
   86   53  -1.00000
   86   61   1.00000
   86   76  -1.00000
   86   78  -1.00000
   86   79   1.00000
   86   81  -1.00000
   86   89  -1.00000
   87   28  -1.00000
   87   32   1.00000
   87   37   1.00000
   87   40  -1.00000
   87   44  -1.00000
   87   47   1.00000
   87   60  -1.00000
   87   65  -1.00000
   87   70  -1.00000
   87   73   1.00000
   87   86  -1.00000
   87   93  -1.00000
   88   30   1.00000
   88   31   1.00000
   88   38   1.00000
   88   41   1.00000
   88   45  -1.00000
   88   48  -1.00000
   88   57  -1.00000
   88   64   1.00000
   88   72  -1.00000
   88   75  -1.00000
   88   83  -1.00000
   88   94  -1.00000
   89   26   1.00000
   89   34   1.00000
   89   35   0.50000
   89   36  -1.00000
   89   52   1.00000
   89   53  -1.00000
   89   61   1.00000
   89   76   1.00000
   89   78  -1.00000
   89   79  -1.00000
   89   81  -1.00000
   89   89   1.00000
   90   28  -1.00000
   90   32   1.00000
   90   37  -1.00000
   90   40   1.00000
   90   44   1.00000
   90   47  -1.00000
   90   60  -1.00000
   90   65  -1.00000
   90   70   1.00000
   90   73  -1.00000
   90   86  -1.00000
   90   93   1.00000
   91   30   1.00000
   91   31   1.00000
   91   38   1.00000
   91   41   1.00000
   91   45  -1.00000
   91   48  -1.00000
   91   57   1.00000
   91   64  -1.00000
   91   72   1.00000
   91   75   1.00000
   91   83  -1.00000
   91   94   1.00000
   92   26   1.00000
   92   34   1.00000
   92   35   0.50000
   92   36  -1.00000
   92   52  -1.00000
   92   53  -1.00000
   92   61  -1.00000
   92   76   1.00000
   92   78   1.00000
   92   79  -1.00000
   92   81   1.00000
   92   89  -1.00000
   93   28  -1.00000
   93   32   1.00000
   93   37  -1.00000
   93   40   1.00000
   93   44  -1.00000
   93   47   1.00000
   93   60  -1.00000
   93   65   1.00000
   93   70   1.00000
   93   73  -1.00000
   93   86   1.00000
   93   93  -1.00000
   94   30   1.00000
   94   31   1.00000
   94   38  -1.00000
   94   41  -1.00000
   94   45  -1.00000
   94   48  -1.00000
   94   57  -1.00000
   94   64  -1.00000
   94   72   1.00000
   94   75   1.00000
   94   83   1.00000
   94   94  -1.00000
   95   26   1.00000
   95   34  -1.00000
   95   35  -0.50000
   95   36   1.00000
   95   52   1.00000
   95   53  -1.00000
   95   61  -1.00000
   95   76  -1.00000
   95   78   1.00000
   95   79   1.00000
   95   81   1.00000
   95   89   1.00000
   96   28  -1.00000
   96   32   1.00000
   96   37   1.00000
   96   40  -1.00000
   96   44   1.00000
   96   47  -1.00000
   96   60  -1.00000
   96   65   1.00000
   96   70  -1.00000
   96   73   1.00000
   96   86   1.00000
   96   93   1.00000

_iso_magneticmode_number    0


_iso_rotationalmode_number    0


_iso_occupancymode_number    0

_iso_strainmode_number    6

loop_
_iso_strainmode_ID
_iso_strainmode_label
_iso_strainmode_value
   1 Pm-3m[0,0,0]GM1+(a)strain(a) 0.00000
   2 Pm-3m[0,0,0]GM3+(a,b)strain(a) 0.00000
   3 Pm-3m[0,0,0]GM3+(a,b)strain(b) 0.00000
   4 Pm-3m[0,0,0]GM5+(a,b,c)strain(a) 0.00000
   5 Pm-3m[0,0,0]GM5+(a,b,c)strain(b) 0.00000
   6 Pm-3m[0,0,0]GM5+(a,b,c)strain(c) 0.00000

loop_
_iso_strainmodenorm_ID
_iso_strainmodenorm_value
   1 0.57735
   2 0.81650
   3 0.70711
   4 1.41421
   5 1.41421
   6 1.41421

loop_
_iso_strain_ID
_iso_strain_label
_iso_strain_value
   1 E_1   0.00000
   2 E_2   0.00000
   3 E_3   0.00000
   4 E_4   0.00000
   5 E_5   0.00000
   6 E_6   0.00000

# matrix conversion: strains(parent) = matrix * modeamplitudes
# Rectangular matrix with 6 rows and _iso_strainmode_number columns

loop_
_iso_strainmodematrix_row
_iso_strainmodematrix_col
_iso_strainmodematrix_value
    1    1   1.00000
    1    2  -0.50000
    1    3   1.00000
    2    1   1.00000
    2    2  -0.50000
    2    3  -1.00000
    3    1   1.00000
    3    2   1.00000
    4    5   1.00000
    5    6   1.00000
    6    4   1.00000

# end of structure file
# end of cif
