# This file was generated by ISODISTORT, version 6.11.1
# Harold T. Stokes, Branton J. Campbell, David Tanner, Dorian M. Hatch
# Brigham Young University, Provo, Utah, USA
#
# Space Group: 221 Pm-3m      Oh-1
# Default space-group preferences: monoclinic axes a(b)c, monoclinic cell choice 1, orthorhombic axes abc, origin choice 2, hexagonal axes, SSG standard setting
# Lattice parameters: a=4.03542, b=4.03542, c=4.03542, alpha=90.00000, beta=90.00000, gamma=90.00000
# Ba1 1a (0,0,0)
# Ti1 1b (1/2,1/2,1/2)
# O1 3c (0,1/2,1/2)
# Include strain, displacive ALL distortions
# Subgroup:   1 P1, basis={(0,0,2),(0,2,0),(-2,0,0)}, origin=(0,0,0), s=8, i=384
# Order parameter values:
#  Pm-3m[0,0,0]GM1+(a) 221 Pm-3m s=1 i=1
#     strain(a): 0.00000
#  Pm-3m[0,0,0]GM3+(a,b) 47 Pmmm s=1 i=6
#     strain(a): 0.00000
#     strain(b): 0.00000
#  Pm-3m[0,0,0]GM5+(a,b,c) 2 P-1 s=1 i=24
#     strain(a): 0.00000
#     strain(b): 0.00000
#     strain(c): 0.00000
#  Pm-3m[0,0,0]GM4-(a,b,c) 1 P1 s=1 i=48
#     [Ba1:a:dsp]T1u(a): 0.00000
#     [Ba1:a:dsp]T1u(b): 0.00000
#     [Ba1:a:dsp]T1u(c): 0.00000
#     [Ti1:b:dsp]T1u(a): 0.00000
#     [Ti1:b:dsp]T1u(b): 0.00000
#     [Ti1:b:dsp]T1u(c): 0.00000
#     [O1:c:dsp]A2u(a): 0.00000
#     [O1:c:dsp]A2u(b): 0.00000
#     [O1:c:dsp]A2u(c): 0.00000
#     [O1:c:dsp]Eu(a): 0.00000
#     [O1:c:dsp]Eu(b): 0.00000
#     [O1:c:dsp]Eu(c): 0.00000
#  Pm-3m[0,0,0]GM5-(a,b,c) 1 P1 s=1 i=48
#     [O1:c:dsp]Eu(a): 0.00000
#     [O1:c:dsp]Eu(b): 0.00000
#     [O1:c:dsp]Eu(c): 0.00000
#  Pm-3m[1/2,1/2,1/2]R5+(a,b,c) 2 P-1 s=2 i=48
#     [Ti1:b:dsp]T1u(a): 0.00000
#     [Ti1:b:dsp]T1u(b): 0.00000
#     [Ti1:b:dsp]T1u(c): 0.00000
#  Pm-3m[1/2,1/2,1/2]R2-(a) 225 Fm-3m s=2 i=2
#     [O1:c:dsp]A2u(a): 0.00000
#  Pm-3m[1/2,1/2,1/2]R3-(a,b) 69 Fmmm s=2 i=12
#     [O1:c:dsp]A2u(a): 0.00000
#     [O1:c:dsp]A2u(b): 0.00000
#  Pm-3m[1/2,1/2,1/2]R4-(a,b,c) 2 P-1 s=2 i=48
#     [Ba1:a:dsp]T1u(a): 0.00000
#     [Ba1:a:dsp]T1u(b): 0.00000
#     [Ba1:a:dsp]T1u(c): 0.00000
#     [O1:c:dsp]Eu(a): 0.00000
#     [O1:c:dsp]Eu(b): 0.00000
#     [O1:c:dsp]Eu(c): 0.00000
#  Pm-3m[1/2,1/2,1/2]R5-(a,b,c) 2 P-1 s=2 i=48
#     [O1:c:dsp]Eu(a): 0.00000
#     [O1:c:dsp]Eu(b): 0.00000
#     [O1:c:dsp]Eu(c): 0.00000
#  Pm-3m[0,1/2,0]X1+(a;b;c) 47 Pmmm s=8 i=48
#     [Ti1:b:dsp]T1u(a): 0.00000
#     [Ti1:b:dsp]T1u(b): 0.00000
#     [Ti1:b:dsp]T1u(c): 0.00000
#     [O1:c:dsp]Eu(a): 0.00000
#     [O1:c:dsp]Eu(b): 0.00000
#     [O1:c:dsp]Eu(c): 0.00000
#  Pm-3m[0,1/2,0]X2+(a;b;c) 47 Pmmm s=8 i=48
#     [O1:c:dsp]Eu(a): 0.00000
#     [O1:c:dsp]Eu(b): 0.00000
#     [O1:c:dsp]Eu(c): 0.00000
#  Pm-3m[0,1/2,0]X5+(a,b;c,d;e,f) 2 P-1 s=8 i=192
#     [Ti1:b:dsp]T1u(a): 0.00000
#     [Ti1:b:dsp]T1u(b): 0.00000
#     [Ti1:b:dsp]T1u(c): 0.00000
#     [Ti1:b:dsp]T1u(d): 0.00000
#     [Ti1:b:dsp]T1u(e): 0.00000
#     [Ti1:b:dsp]T1u(f): 0.00000
#     [O1:c:dsp]A2u(a): 0.00000
#     [O1:c:dsp]A2u(b): 0.00000
#     [O1:c:dsp]A2u(c): 0.00000
#     [O1:c:dsp]A2u(d): 0.00000
#     [O1:c:dsp]A2u(e): 0.00000
#     [O1:c:dsp]A2u(f): 0.00000
#     [O1:c:dsp]Eu(a): 0.00000
#     [O1:c:dsp]Eu(b): 0.00000
#     [O1:c:dsp]Eu(c): 0.00000
#     [O1:c:dsp]Eu(d): 0.00000
#     [O1:c:dsp]Eu(e): 0.00000
#     [O1:c:dsp]Eu(f): 0.00000
#  Pm-3m[0,1/2,0]X3-(a;b;c) 47 Pmmm s=8 i=48
#     [Ba1:a:dsp]T1u(a): 0.00000
#     [Ba1:a:dsp]T1u(b): 0.00000
#     [Ba1:a:dsp]T1u(c): 0.00000
#     [O1:c:dsp]A2u(a): 0.00000
#     [O1:c:dsp]A2u(b): 0.00000
#     [O1:c:dsp]A2u(c): 0.00000
#  Pm-3m[0,1/2,0]X5-(a,b;c,d;e,f) 2 P-1 s=8 i=192
#     [Ba1:a:dsp]T1u(a): 0.00000
#     [Ba1:a:dsp]T1u(b): 0.00000
#     [Ba1:a:dsp]T1u(c): 0.00000
#     [Ba1:a:dsp]T1u(d): 0.00000
#     [Ba1:a:dsp]T1u(e): 0.00000
#     [Ba1:a:dsp]T1u(f): 0.00000
#     [O1:c:dsp]Eu(a): 0.00000
#     [O1:c:dsp]Eu(b): 0.00000
#     [O1:c:dsp]Eu(c): 0.00000
#     [O1:c:dsp]Eu(d): 0.00000
#     [O1:c:dsp]Eu(e): 0.00000
#     [O1:c:dsp]Eu(f): 0.00000
#  Pm-3m[1/2,1/2,0]M1+(a;b;c) 71 Immm s=4 i=24
#     [O1:c:dsp]Eu(a): 0.00000
#     [O1:c:dsp]Eu(b): 0.00000
#     [O1:c:dsp]Eu(c): 0.00000
#  Pm-3m[1/2,1/2,0]M2+(a;b;c) 71 Immm s=4 i=24
#     [O1:c:dsp]Eu(a): 0.00000
#     [O1:c:dsp]Eu(b): 0.00000
#     [O1:c:dsp]Eu(c): 0.00000
#  Pm-3m[1/2,1/2,0]M3+(a;b;c) 71 Immm s=4 i=24
#     [O1:c:dsp]A2u(a): 0.00000
#     [O1:c:dsp]A2u(b): 0.00000
#     [O1:c:dsp]A2u(c): 0.00000
#  Pm-3m[1/2,1/2,0]M4+(a;b;c) 71 Immm s=4 i=24
#     [O1:c:dsp]A2u(a): 0.00000
#     [O1:c:dsp]A2u(b): 0.00000
#     [O1:c:dsp]A2u(c): 0.00000
#  Pm-3m[1/2,1/2,0]M5+(a,b;c,d;e,f) 2 P-1 s=4 i=96
#     [O1:c:dsp]Eu(a): 0.00000
#     [O1:c:dsp]Eu(b): 0.00000
#     [O1:c:dsp]Eu(c): 0.00000
#     [O1:c:dsp]Eu(d): 0.00000
#     [O1:c:dsp]Eu(e): 0.00000
#     [O1:c:dsp]Eu(f): 0.00000
#  Pm-3m[1/2,1/2,0]M2-(a;b;c) 23 I222 s=4 i=48
#     [Ti1:b:dsp]T1u(a): 0.00000
#     [Ti1:b:dsp]T1u(b): 0.00000
#     [Ti1:b:dsp]T1u(c): 0.00000
#     [O1:c:dsp]A2u(a): 0.00000
#     [O1:c:dsp]A2u(b): 0.00000
#     [O1:c:dsp]A2u(c): 0.00000
#  Pm-3m[1/2,1/2,0]M3-(a;b;c) 23 I222 s=4 i=48
#     [Ba1:a:dsp]T1u(a): 0.00000
#     [Ba1:a:dsp]T1u(b): 0.00000
#     [Ba1:a:dsp]T1u(c): 0.00000
#  Pm-3m[1/2,1/2,0]M5-(a,b;c,d;e,f) 1 P1 s=4 i=192
#     [Ba1:a:dsp]T1u(a): 0.00000
#     [Ba1:a:dsp]T1u(b): 0.00000
#     [Ba1:a:dsp]T1u(c): 0.00000
#     [Ba1:a:dsp]T1u(d): 0.00000
#     [Ba1:a:dsp]T1u(e): 0.00000
#     [Ba1:a:dsp]T1u(f): 0.00000
#     [Ti1:b:dsp]T1u(a): 0.00000
#     [Ti1:b:dsp]T1u(b): 0.00000
#     [Ti1:b:dsp]T1u(c): 0.00000
#     [Ti1:b:dsp]T1u(d): 0.00000
#     [Ti1:b:dsp]T1u(e): 0.00000
#     [Ti1:b:dsp]T1u(f): 0.00000
#     [O1:c:dsp]Eu(a): 0.00000
#     [O1:c:dsp]Eu(b): 0.00000
#     [O1:c:dsp]Eu(c): 0.00000
#     [O1:c:dsp]Eu(d): 0.00000
#     [O1:c:dsp]Eu(e): 0.00000
#     [O1:c:dsp]Eu(f): 0.00000

data_isodistort-output

_cell_length_a    8.07084
_cell_length_b    8.07084
_cell_length_c    8.07084
_cell_angle_alpha 90.00000
_cell_angle_beta  90.00000
_cell_angle_gamma 90.00000
_cell_volume      525.72207

_symmetry_space_group_name_H-M "P 1"
_symmetry_Int_Tables_number 1
_space_group.reference_setting '001:P 1'
_space_group.transform_Pp_abc a,b,c;0,0,0

loop_
_space_group_symop_id
_space_group_symop_operation_xyz
1 x,y,z

loop_
_atom_site_label
_atom_site_type_symbol
_atom_site_symmetry_multiplicity
_atom_site_Wyckoff_label
_atom_site_fract_x
_atom_site_fract_y
_atom_site_fract_z
_atom_site_occupancy
_atom_site_fract_symmform
Ba1_1 Ba2+   1 a 0.00000 0.00000 0.00000 1.00000 Dx,Dy,Dz 
Ba1_2 Ba2+   1 a 0.00000 0.00000 0.50000 1.00000 Dx,Dy,Dz 
Ba1_3 Ba2+   1 a 0.00000 0.50000 0.00000 1.00000 Dx,Dy,Dz 
Ba1_4 Ba2+   1 a 0.00000 0.50000 0.50000 1.00000 Dx,Dy,Dz 
Ba1_5 Ba2+   1 a 0.50000 0.00000 0.00000 1.00000 Dx,Dy,Dz 
Ba1_6 Ba2+   1 a 0.50000 0.00000 0.50000 1.00000 Dx,Dy,Dz 
Ba1_7 Ba2+   1 a 0.50000 0.50000 0.00000 1.00000 Dx,Dy,Dz 
Ba1_8 Ba2+   1 a 0.50000 0.50000 0.50000 1.00000 Dx,Dy,Dz 
Ti1_1 Ti4+   1 a 0.25000 0.25000 0.75000 1.00000 Dx,Dy,Dz 
Ti1_2 Ti4+   1 a 0.25000 0.25000 0.25000 1.00000 Dx,Dy,Dz 
Ti1_3 Ti4+   1 a 0.25000 0.75000 0.75000 1.00000 Dx,Dy,Dz 
Ti1_4 Ti4+   1 a 0.25000 0.75000 0.25000 1.00000 Dx,Dy,Dz 
Ti1_5 Ti4+   1 a 0.75000 0.25000 0.75000 1.00000 Dx,Dy,Dz 
Ti1_6 Ti4+   1 a 0.75000 0.25000 0.25000 1.00000 Dx,Dy,Dz 
Ti1_7 Ti4+   1 a 0.75000 0.75000 0.75000 1.00000 Dx,Dy,Dz 
Ti1_8 Ti4+   1 a 0.75000 0.75000 0.25000 1.00000 Dx,Dy,Dz 
O1_1  O2-    1 a 0.25000 0.25000 0.00000 1.00000 Dx,Dy,Dz 
O1_2  O2-    1 a 0.25000 0.25000 0.50000 1.00000 Dx,Dy,Dz 
O1_3  O2-    1 a 0.25000 0.75000 0.00000 1.00000 Dx,Dy,Dz 
O1_4  O2-    1 a 0.25000 0.75000 0.50000 1.00000 Dx,Dy,Dz 
O1_5  O2-    1 a 0.75000 0.25000 0.00000 1.00000 Dx,Dy,Dz 
O1_6  O2-    1 a 0.75000 0.25000 0.50000 1.00000 Dx,Dy,Dz 
O1_7  O2-    1 a 0.75000 0.75000 0.00000 1.00000 Dx,Dy,Dz 
O1_8  O2-    1 a 0.75000 0.75000 0.50000 1.00000 Dx,Dy,Dz 
O1_9  O2-    1 a 0.00000 0.25000 0.75000 1.00000 Dx,Dy,Dz 
O1_10 O2-    1 a 0.00000 0.25000 0.25000 1.00000 Dx,Dy,Dz 
O1_11 O2-    1 a 0.00000 0.75000 0.75000 1.00000 Dx,Dy,Dz 
O1_12 O2-    1 a 0.00000 0.75000 0.25000 1.00000 Dx,Dy,Dz 
O1_13 O2-    1 a 0.50000 0.25000 0.75000 1.00000 Dx,Dy,Dz 
O1_14 O2-    1 a 0.50000 0.25000 0.25000 1.00000 Dx,Dy,Dz 
O1_15 O2-    1 a 0.50000 0.75000 0.75000 1.00000 Dx,Dy,Dz 
O1_16 O2-    1 a 0.50000 0.75000 0.25000 1.00000 Dx,Dy,Dz 
O1_17 O2-    1 a 0.25000 0.00000 0.75000 1.00000 Dx,Dy,Dz 
O1_18 O2-    1 a 0.25000 0.00000 0.25000 1.00000 Dx,Dy,Dz 
O1_19 O2-    1 a 0.25000 0.50000 0.75000 1.00000 Dx,Dy,Dz 
O1_20 O2-    1 a 0.25000 0.50000 0.25000 1.00000 Dx,Dy,Dz 
O1_21 O2-    1 a 0.75000 0.00000 0.75000 1.00000 Dx,Dy,Dz 
O1_22 O2-    1 a 0.75000 0.00000 0.25000 1.00000 Dx,Dy,Dz 
O1_23 O2-    1 a 0.75000 0.50000 0.75000 1.00000 Dx,Dy,Dz 
O1_24 O2-    1 a 0.75000 0.50000 0.25000 1.00000 Dx,Dy,Dz 

_iso_displacivemode_number  120

loop_
_iso_displacivemode_ID
_iso_displacivemode_label
_iso_displacivemode_value
   1 Pm-3m[0,0,0]GM4-(a,b,c)[Ba1:a:dsp]T1u(a) 0.00000
   2 Pm-3m[0,0,0]GM4-(a,b,c)[Ba1:a:dsp]T1u(b) 0.00000
   3 Pm-3m[0,0,0]GM4-(a,b,c)[Ba1:a:dsp]T1u(c) 0.00000
   4 Pm-3m[1/2,1/2,1/2]R4-(a,b,c)[Ba1:a:dsp]T1u(a) 0.00000
   5 Pm-3m[1/2,1/2,1/2]R4-(a,b,c)[Ba1:a:dsp]T1u(b) 0.00000
   6 Pm-3m[1/2,1/2,1/2]R4-(a,b,c)[Ba1:a:dsp]T1u(c) 0.00000
   7 Pm-3m[0,1/2,0]X3-(a;b;c)[Ba1:a:dsp]T1u(a) 0.00000
   8 Pm-3m[0,1/2,0]X3-(a;b;c)[Ba1:a:dsp]T1u(b) 0.00000
   9 Pm-3m[0,1/2,0]X3-(a;b;c)[Ba1:a:dsp]T1u(c) 0.00000
  10 Pm-3m[0,1/2,0]X5-(a,b;c,d;e,f)[Ba1:a:dsp]T1u(a) 0.00000
  11 Pm-3m[0,1/2,0]X5-(a,b;c,d;e,f)[Ba1:a:dsp]T1u(b) 0.00000
  12 Pm-3m[0,1/2,0]X5-(a,b;c,d;e,f)[Ba1:a:dsp]T1u(c) 0.00000
  13 Pm-3m[0,1/2,0]X5-(a,b;c,d;e,f)[Ba1:a:dsp]T1u(d) 0.00000
  14 Pm-3m[0,1/2,0]X5-(a,b;c,d;e,f)[Ba1:a:dsp]T1u(e) 0.00000
  15 Pm-3m[0,1/2,0]X5-(a,b;c,d;e,f)[Ba1:a:dsp]T1u(f) 0.00000
  16 Pm-3m[1/2,1/2,0]M3-(a;b;c)[Ba1:a:dsp]T1u(a) 0.00000
  17 Pm-3m[1/2,1/2,0]M3-(a;b;c)[Ba1:a:dsp]T1u(b) 0.00000
  18 Pm-3m[1/2,1/2,0]M3-(a;b;c)[Ba1:a:dsp]T1u(c) 0.00000
  19 Pm-3m[1/2,1/2,0]M5-(a,b;c,d;e,f)[Ba1:a:dsp]T1u(a) 0.00000
  20 Pm-3m[1/2,1/2,0]M5-(a,b;c,d;e,f)[Ba1:a:dsp]T1u(b) 0.00000
  21 Pm-3m[1/2,1/2,0]M5-(a,b;c,d;e,f)[Ba1:a:dsp]T1u(c) 0.00000
  22 Pm-3m[1/2,1/2,0]M5-(a,b;c,d;e,f)[Ba1:a:dsp]T1u(d) 0.00000
  23 Pm-3m[1/2,1/2,0]M5-(a,b;c,d;e,f)[Ba1:a:dsp]T1u(e) 0.00000
  24 Pm-3m[1/2,1/2,0]M5-(a,b;c,d;e,f)[Ba1:a:dsp]T1u(f) 0.00000
  25 Pm-3m[0,0,0]GM4-(a,b,c)[Ti1:b:dsp]T1u(a) 0.00000
  26 Pm-3m[0,0,0]GM4-(a,b,c)[Ti1:b:dsp]T1u(b) 0.00000
  27 Pm-3m[0,0,0]GM4-(a,b,c)[Ti1:b:dsp]T1u(c) 0.00000
  28 Pm-3m[1/2,1/2,1/2]R5+(a,b,c)[Ti1:b:dsp]T1u(a) 0.00000
  29 Pm-3m[1/2,1/2,1/2]R5+(a,b,c)[Ti1:b:dsp]T1u(b) 0.00000
  30 Pm-3m[1/2,1/2,1/2]R5+(a,b,c)[Ti1:b:dsp]T1u(c) 0.00000
  31 Pm-3m[0,1/2,0]X1+(a;b;c)[Ti1:b:dsp]T1u(a) 0.00000
  32 Pm-3m[0,1/2,0]X1+(a;b;c)[Ti1:b:dsp]T1u(b) 0.00000
  33 Pm-3m[0,1/2,0]X1+(a;b;c)[Ti1:b:dsp]T1u(c) 0.00000
  34 Pm-3m[0,1/2,0]X5+(a,b;c,d;e,f)[Ti1:b:dsp]T1u(a) 0.00000
  35 Pm-3m[0,1/2,0]X5+(a,b;c,d;e,f)[Ti1:b:dsp]T1u(b) 0.00000
  36 Pm-3m[0,1/2,0]X5+(a,b;c,d;e,f)[Ti1:b:dsp]T1u(c) 0.00000
  37 Pm-3m[0,1/2,0]X5+(a,b;c,d;e,f)[Ti1:b:dsp]T1u(d) 0.00000
  38 Pm-3m[0,1/2,0]X5+(a,b;c,d;e,f)[Ti1:b:dsp]T1u(e) 0.00000
  39 Pm-3m[0,1/2,0]X5+(a,b;c,d;e,f)[Ti1:b:dsp]T1u(f) 0.00000
  40 Pm-3m[1/2,1/2,0]M2-(a;b;c)[Ti1:b:dsp]T1u(a) 0.00000
  41 Pm-3m[1/2,1/2,0]M2-(a;b;c)[Ti1:b:dsp]T1u(b) 0.00000
  42 Pm-3m[1/2,1/2,0]M2-(a;b;c)[Ti1:b:dsp]T1u(c) 0.00000
  43 Pm-3m[1/2,1/2,0]M5-(a,b;c,d;e,f)[Ti1:b:dsp]T1u(a) 0.00000
  44 Pm-3m[1/2,1/2,0]M5-(a,b;c,d;e,f)[Ti1:b:dsp]T1u(b) 0.00000
  45 Pm-3m[1/2,1/2,0]M5-(a,b;c,d;e,f)[Ti1:b:dsp]T1u(c) 0.00000
  46 Pm-3m[1/2,1/2,0]M5-(a,b;c,d;e,f)[Ti1:b:dsp]T1u(d) 0.00000
  47 Pm-3m[1/2,1/2,0]M5-(a,b;c,d;e,f)[Ti1:b:dsp]T1u(e) 0.00000
  48 Pm-3m[1/2,1/2,0]M5-(a,b;c,d;e,f)[Ti1:b:dsp]T1u(f) 0.00000
  49 Pm-3m[0,0,0]GM4-(a,b,c)[O1:c:dsp]A2u(a) 0.00000
  50 Pm-3m[0,0,0]GM4-(a,b,c)[O1:c:dsp]A2u(b) 0.00000
  51 Pm-3m[0,0,0]GM4-(a,b,c)[O1:c:dsp]A2u(c) 0.00000
  52 Pm-3m[0,0,0]GM4-(a,b,c)[O1:c:dsp]Eu(a) 0.00000
  53 Pm-3m[0,0,0]GM4-(a,b,c)[O1:c:dsp]Eu(b) 0.00000
  54 Pm-3m[0,0,0]GM4-(a,b,c)[O1:c:dsp]Eu(c) 0.00000
  55 Pm-3m[0,0,0]GM5-(a,b,c)[O1:c:dsp]Eu(a) 0.00000
  56 Pm-3m[0,0,0]GM5-(a,b,c)[O1:c:dsp]Eu(b) 0.00000
  57 Pm-3m[0,0,0]GM5-(a,b,c)[O1:c:dsp]Eu(c) 0.00000
  58 Pm-3m[1/2,1/2,1/2]R2-(a)[O1:c:dsp]A2u(a) 0.00000
  59 Pm-3m[1/2,1/2,1/2]R3-(a,b)[O1:c:dsp]A2u(a) 0.00000
  60 Pm-3m[1/2,1/2,1/2]R3-(a,b)[O1:c:dsp]A2u(b) 0.00000
  61 Pm-3m[1/2,1/2,1/2]R4-(a,b,c)[O1:c:dsp]Eu(a) 0.00000
  62 Pm-3m[1/2,1/2,1/2]R4-(a,b,c)[O1:c:dsp]Eu(b) 0.00000
  63 Pm-3m[1/2,1/2,1/2]R4-(a,b,c)[O1:c:dsp]Eu(c) 0.00000
  64 Pm-3m[1/2,1/2,1/2]R5-(a,b,c)[O1:c:dsp]Eu(a) 0.00000
  65 Pm-3m[1/2,1/2,1/2]R5-(a,b,c)[O1:c:dsp]Eu(b) 0.00000
  66 Pm-3m[1/2,1/2,1/2]R5-(a,b,c)[O1:c:dsp]Eu(c) 0.00000
  67 Pm-3m[0,1/2,0]X1+(a;b;c)[O1:c:dsp]Eu(a) 0.00000
  68 Pm-3m[0,1/2,0]X1+(a;b;c)[O1:c:dsp]Eu(b) 0.00000
  69 Pm-3m[0,1/2,0]X1+(a;b;c)[O1:c:dsp]Eu(c) 0.00000
  70 Pm-3m[0,1/2,0]X2+(a;b;c)[O1:c:dsp]Eu(a) 0.00000
  71 Pm-3m[0,1/2,0]X2+(a;b;c)[O1:c:dsp]Eu(b) 0.00000
  72 Pm-3m[0,1/2,0]X2+(a;b;c)[O1:c:dsp]Eu(c) 0.00000
  73 Pm-3m[0,1/2,0]X5+(a,b;c,d;e,f)[O1:c:dsp]A2u(a) 0.00000
  74 Pm-3m[0,1/2,0]X5+(a,b;c,d;e,f)[O1:c:dsp]A2u(b) 0.00000
  75 Pm-3m[0,1/2,0]X5+(a,b;c,d;e,f)[O1:c:dsp]A2u(c) 0.00000
  76 Pm-3m[0,1/2,0]X5+(a,b;c,d;e,f)[O1:c:dsp]A2u(d) 0.00000
  77 Pm-3m[0,1/2,0]X5+(a,b;c,d;e,f)[O1:c:dsp]A2u(e) 0.00000
  78 Pm-3m[0,1/2,0]X5+(a,b;c,d;e,f)[O1:c:dsp]A2u(f) 0.00000
  79 Pm-3m[0,1/2,0]X5+(a,b;c,d;e,f)[O1:c:dsp]Eu(a) 0.00000
  80 Pm-3m[0,1/2,0]X5+(a,b;c,d;e,f)[O1:c:dsp]Eu(b) 0.00000
  81 Pm-3m[0,1/2,0]X5+(a,b;c,d;e,f)[O1:c:dsp]Eu(c) 0.00000
  82 Pm-3m[0,1/2,0]X5+(a,b;c,d;e,f)[O1:c:dsp]Eu(d) 0.00000
  83 Pm-3m[0,1/2,0]X5+(a,b;c,d;e,f)[O1:c:dsp]Eu(e) 0.00000
  84 Pm-3m[0,1/2,0]X5+(a,b;c,d;e,f)[O1:c:dsp]Eu(f) 0.00000
  85 Pm-3m[0,1/2,0]X3-(a;b;c)[O1:c:dsp]A2u(a) 0.00000
  86 Pm-3m[0,1/2,0]X3-(a;b;c)[O1:c:dsp]A2u(b) 0.00000
  87 Pm-3m[0,1/2,0]X3-(a;b;c)[O1:c:dsp]A2u(c) 0.00000
  88 Pm-3m[0,1/2,0]X5-(a,b;c,d;e,f)[O1:c:dsp]Eu(a) 0.00000
  89 Pm-3m[0,1/2,0]X5-(a,b;c,d;e,f)[O1:c:dsp]Eu(b) 0.00000
  90 Pm-3m[0,1/2,0]X5-(a,b;c,d;e,f)[O1:c:dsp]Eu(c) 0.00000
  91 Pm-3m[0,1/2,0]X5-(a,b;c,d;e,f)[O1:c:dsp]Eu(d) 0.00000
  92 Pm-3m[0,1/2,0]X5-(a,b;c,d;e,f)[O1:c:dsp]Eu(e) 0.00000
  93 Pm-3m[0,1/2,0]X5-(a,b;c,d;e,f)[O1:c:dsp]Eu(f) 0.00000
  94 Pm-3m[1/2,1/2,0]M1+(a;b;c)[O1:c:dsp]Eu(a) 0.00000
  95 Pm-3m[1/2,1/2,0]M1+(a;b;c)[O1:c:dsp]Eu(b) 0.00000
  96 Pm-3m[1/2,1/2,0]M1+(a;b;c)[O1:c:dsp]Eu(c) 0.00000
  97 Pm-3m[1/2,1/2,0]M2+(a;b;c)[O1:c:dsp]Eu(a) 0.00000
  98 Pm-3m[1/2,1/2,0]M2+(a;b;c)[O1:c:dsp]Eu(b) 0.00000
  99 Pm-3m[1/2,1/2,0]M2+(a;b;c)[O1:c:dsp]Eu(c) 0.00000
 100 Pm-3m[1/2,1/2,0]M3+(a;b;c)[O1:c:dsp]A2u(a) 0.00000
 101 Pm-3m[1/2,1/2,0]M3+(a;b;c)[O1:c:dsp]A2u(b) 0.00000
 102 Pm-3m[1/2,1/2,0]M3+(a;b;c)[O1:c:dsp]A2u(c) 0.00000
 103 Pm-3m[1/2,1/2,0]M4+(a;b;c)[O1:c:dsp]A2u(a) 0.00000
 104 Pm-3m[1/2,1/2,0]M4+(a;b;c)[O1:c:dsp]A2u(b) 0.00000
 105 Pm-3m[1/2,1/2,0]M4+(a;b;c)[O1:c:dsp]A2u(c) 0.00000
 106 Pm-3m[1/2,1/2,0]M5+(a,b;c,d;e,f)[O1:c:dsp]Eu(a) 0.00000
 107 Pm-3m[1/2,1/2,0]M5+(a,b;c,d;e,f)[O1:c:dsp]Eu(b) 0.00000
 108 Pm-3m[1/2,1/2,0]M5+(a,b;c,d;e,f)[O1:c:dsp]Eu(c) 0.00000
 109 Pm-3m[1/2,1/2,0]M5+(a,b;c,d;e,f)[O1:c:dsp]Eu(d) 0.00000
 110 Pm-3m[1/2,1/2,0]M5+(a,b;c,d;e,f)[O1:c:dsp]Eu(e) 0.00000
 111 Pm-3m[1/2,1/2,0]M5+(a,b;c,d;e,f)[O1:c:dsp]Eu(f) 0.00000
 112 Pm-3m[1/2,1/2,0]M2-(a;b;c)[O1:c:dsp]A2u(a) 0.00000
 113 Pm-3m[1/2,1/2,0]M2-(a;b;c)[O1:c:dsp]A2u(b) 0.00000
 114 Pm-3m[1/2,1/2,0]M2-(a;b;c)[O1:c:dsp]A2u(c) 0.00000
 115 Pm-3m[1/2,1/2,0]M5-(a,b;c,d;e,f)[O1:c:dsp]Eu(a) 0.00000
 116 Pm-3m[1/2,1/2,0]M5-(a,b;c,d;e,f)[O1:c:dsp]Eu(b) 0.00000
 117 Pm-3m[1/2,1/2,0]M5-(a,b;c,d;e,f)[O1:c:dsp]Eu(c) 0.00000
 118 Pm-3m[1/2,1/2,0]M5-(a,b;c,d;e,f)[O1:c:dsp]Eu(d) 0.00000
 119 Pm-3m[1/2,1/2,0]M5-(a,b;c,d;e,f)[O1:c:dsp]Eu(e) 0.00000
 120 Pm-3m[1/2,1/2,0]M5-(a,b;c,d;e,f)[O1:c:dsp]Eu(f) 0.00000

loop_
_iso_displacivemodenorm_ID
_iso_displacivemodenorm_value
   1 0.04381
   2 0.04381
   3 0.04381
   4 0.04381
   5 0.04381
   6 0.04381
   7 0.04381
   8 0.04381
   9 0.04381
  10 0.04381
  11 0.04381
  12 0.04381
  13 0.04381
  14 0.04381
  15 0.04381
  16 0.04381
  17 0.04381
  18 0.04381
  19 0.04381
  20 0.04381
  21 0.04381
  22 0.04381
  23 0.04381
  24 0.04381
  25 0.04381
  26 0.04381
  27 0.04381
  28 0.04381
  29 0.04381
  30 0.04381
  31 0.04381
  32 0.04381
  33 0.04381
  34 0.04381
  35 0.04381
  36 0.04381
  37 0.04381
  38 0.04381
  39 0.04381
  40 0.04381
  41 0.04381
  42 0.04381
  43 0.04381
  44 0.04381
  45 0.04381
  46 0.04381
  47 0.04381
  48 0.04381
  49 0.04381
  50 0.04381
  51 0.04381
  52 0.03098
  53 0.03098
  54 0.03098
  55 0.03098
  56 0.03098
  57 0.03098
  58 0.02529
  59 0.03577
  60 0.03098
  61 0.03098
  62 0.03098
  63 0.03098
  64 0.03098
  65 0.03098
  66 0.03098
  67 0.03098
  68 0.03098
  69 0.03098
  70 0.03098
  71 0.03098
  72 0.03098
  73 0.04381
  74 0.04381
  75 0.04381
  76 0.04381
  77 0.04381
  78 0.04381
  79 0.04381
  80 0.04381
  81 0.04381
  82 0.04381
  83 0.04381
  84 0.04381
  85 0.04381
  86 0.04381
  87 0.04381
  88 0.04381
  89 0.04381
  90 0.04381
  91 0.04381
  92 0.04381
  93 0.04381
  94 0.03098
  95 0.03098
  96 0.03098
  97 0.03098
  98 0.03098
  99 0.03098
 100 0.03098
 101 0.03098
 102 0.03098
 103 0.03098
 104 0.03098
 105 0.03098
 106 0.04381
 107 0.04381
 108 0.04381
 109 0.04381
 110 0.04381
 111 0.04381
 112 0.04381
 113 0.04381
 114 0.04381
 115 0.04381
 116 0.04381
 117 0.04381
 118 0.04381
 119 0.04381
 120 0.04381

loop_
_iso_deltacoordinate_ID
_iso_deltacoordinate_label
_iso_deltacoordinate_value
   1 Ba1_1_dx   0.00000
   2 Ba1_1_dy   0.00000
   3 Ba1_1_dz   0.00000
   4 Ba1_2_dx   0.00000
   5 Ba1_2_dy   0.00000
   6 Ba1_2_dz   0.00000
   7 Ba1_3_dx   0.00000
   8 Ba1_3_dy   0.00000
   9 Ba1_3_dz   0.00000
  10 Ba1_4_dx   0.00000
  11 Ba1_4_dy   0.00000
  12 Ba1_4_dz   0.00000
  13 Ba1_5_dx   0.00000
  14 Ba1_5_dy   0.00000
  15 Ba1_5_dz   0.00000
  16 Ba1_6_dx   0.00000
  17 Ba1_6_dy   0.00000
  18 Ba1_6_dz   0.00000
  19 Ba1_7_dx   0.00000
  20 Ba1_7_dy   0.00000
  21 Ba1_7_dz   0.00000
  22 Ba1_8_dx   0.00000
  23 Ba1_8_dy   0.00000
  24 Ba1_8_dz   0.00000
  25 Ti1_1_dx   0.00000
  26 Ti1_1_dy   0.00000
  27 Ti1_1_dz   0.00000
  28 Ti1_2_dx   0.00000
  29 Ti1_2_dy   0.00000
  30 Ti1_2_dz   0.00000
  31 Ti1_3_dx   0.00000
  32 Ti1_3_dy   0.00000
  33 Ti1_3_dz   0.00000
  34 Ti1_4_dx   0.00000
  35 Ti1_4_dy   0.00000
  36 Ti1_4_dz   0.00000
  37 Ti1_5_dx   0.00000
  38 Ti1_5_dy   0.00000
  39 Ti1_5_dz   0.00000
  40 Ti1_6_dx   0.00000
  41 Ti1_6_dy   0.00000
  42 Ti1_6_dz   0.00000
  43 Ti1_7_dx   0.00000
  44 Ti1_7_dy   0.00000
  45 Ti1_7_dz   0.00000
  46 Ti1_8_dx   0.00000
  47 Ti1_8_dy   0.00000
  48 Ti1_8_dz   0.00000
  49 O1_1_dx   0.00000
  50 O1_1_dy   0.00000
  51 O1_1_dz   0.00000
  52 O1_2_dx   0.00000
  53 O1_2_dy   0.00000
  54 O1_2_dz   0.00000
  55 O1_3_dx   0.00000
  56 O1_3_dy   0.00000
  57 O1_3_dz   0.00000
  58 O1_4_dx   0.00000
  59 O1_4_dy   0.00000
  60 O1_4_dz   0.00000
  61 O1_5_dx   0.00000
  62 O1_5_dy   0.00000
  63 O1_5_dz   0.00000
  64 O1_6_dx   0.00000
  65 O1_6_dy   0.00000
  66 O1_6_dz   0.00000
  67 O1_7_dx   0.00000
  68 O1_7_dy   0.00000
  69 O1_7_dz   0.00000
  70 O1_8_dx   0.00000
  71 O1_8_dy   0.00000
  72 O1_8_dz   0.00000
  73 O1_9_dx   0.00000
  74 O1_9_dy   0.00000
  75 O1_9_dz   0.00000
  76 O1_10_dx   0.00000
  77 O1_10_dy   0.00000
  78 O1_10_dz   0.00000
  79 O1_11_dx   0.00000
  80 O1_11_dy   0.00000
  81 O1_11_dz   0.00000
  82 O1_12_dx   0.00000
  83 O1_12_dy   0.00000
  84 O1_12_dz   0.00000
  85 O1_13_dx   0.00000
  86 O1_13_dy   0.00000
  87 O1_13_dz   0.00000
  88 O1_14_dx   0.00000
  89 O1_14_dy   0.00000
  90 O1_14_dz   0.00000
  91 O1_15_dx   0.00000
  92 O1_15_dy   0.00000
  93 O1_15_dz   0.00000
  94 O1_16_dx   0.00000
  95 O1_16_dy   0.00000
  96 O1_16_dz   0.00000
  97 O1_17_dx   0.00000
  98 O1_17_dy   0.00000
  99 O1_17_dz   0.00000
 100 O1_18_dx   0.00000
 101 O1_18_dy   0.00000
 102 O1_18_dz   0.00000
 103 O1_19_dx   0.00000
 104 O1_19_dy   0.00000
 105 O1_19_dz   0.00000
 106 O1_20_dx   0.00000
 107 O1_20_dy   0.00000
 108 O1_20_dz   0.00000
 109 O1_21_dx   0.00000
 110 O1_21_dy   0.00000
 111 O1_21_dz   0.00000
 112 O1_22_dx   0.00000
 113 O1_22_dy   0.00000
 114 O1_22_dz   0.00000
 115 O1_23_dx   0.00000
 116 O1_23_dy   0.00000
 117 O1_23_dz   0.00000
 118 O1_24_dx   0.00000
 119 O1_24_dy   0.00000
 120 O1_24_dz   0.00000

loop_
_iso_coordinate_label
_iso_coordinate_formula
Ba1_1_x                 "0 + Ba1_1_dx"
Ba1_1_y                 "0 + Ba1_1_dy"
Ba1_1_z                 "0 + Ba1_1_dz"
Ba1_2_x                 "0 + Ba1_2_dx"
Ba1_2_y                 "0 + Ba1_2_dy"
Ba1_2_z                 "1/2 + Ba1_2_dz"
Ba1_3_x                 "0 + Ba1_3_dx"
Ba1_3_y                 "1/2 + Ba1_3_dy"
Ba1_3_z                 "0 + Ba1_3_dz"
Ba1_4_x                 "0 + Ba1_4_dx"
Ba1_4_y                 "1/2 + Ba1_4_dy"
Ba1_4_z                 "1/2 + Ba1_4_dz"
Ba1_5_x                 "1/2 + Ba1_5_dx"
Ba1_5_y                 "0 + Ba1_5_dy"
Ba1_5_z                 "0 + Ba1_5_dz"
Ba1_6_x                 "1/2 + Ba1_6_dx"
Ba1_6_y                 "0 + Ba1_6_dy"
Ba1_6_z                 "1/2 + Ba1_6_dz"
Ba1_7_x                 "1/2 + Ba1_7_dx"
Ba1_7_y                 "1/2 + Ba1_7_dy"
Ba1_7_z                 "0 + Ba1_7_dz"
Ba1_8_x                 "1/2 + Ba1_8_dx"
Ba1_8_y                 "1/2 + Ba1_8_dy"
Ba1_8_z                 "1/2 + Ba1_8_dz"
Ti1_1_x                 "1/4 + Ti1_1_dx"
Ti1_1_y                 "1/4 + Ti1_1_dy"
Ti1_1_z                 "3/4 + Ti1_1_dz"
Ti1_2_x                 "1/4 + Ti1_2_dx"
Ti1_2_y                 "1/4 + Ti1_2_dy"
Ti1_2_z                 "1/4 + Ti1_2_dz"
Ti1_3_x                 "1/4 + Ti1_3_dx"
Ti1_3_y                 "3/4 + Ti1_3_dy"
Ti1_3_z                 "3/4 + Ti1_3_dz"
Ti1_4_x                 "1/4 + Ti1_4_dx"
Ti1_4_y                 "3/4 + Ti1_4_dy"
Ti1_4_z                 "1/4 + Ti1_4_dz"
Ti1_5_x                 "3/4 + Ti1_5_dx"
Ti1_5_y                 "1/4 + Ti1_5_dy"
Ti1_5_z                 "3/4 + Ti1_5_dz"
Ti1_6_x                 "3/4 + Ti1_6_dx"
Ti1_6_y                 "1/4 + Ti1_6_dy"
Ti1_6_z                 "1/4 + Ti1_6_dz"
Ti1_7_x                 "3/4 + Ti1_7_dx"
Ti1_7_y                 "3/4 + Ti1_7_dy"
Ti1_7_z                 "3/4 + Ti1_7_dz"
Ti1_8_x                 "3/4 + Ti1_8_dx"
Ti1_8_y                 "3/4 + Ti1_8_dy"
Ti1_8_z                 "1/4 + Ti1_8_dz"
O1_1_x                  "1/4 + O1_1_dx"
O1_1_y                  "1/4 + O1_1_dy"
O1_1_z                  "0 + O1_1_dz"
O1_2_x                  "1/4 + O1_2_dx"
O1_2_y                  "1/4 + O1_2_dy"
O1_2_z                  "1/2 + O1_2_dz"
O1_3_x                  "1/4 + O1_3_dx"
O1_3_y                  "3/4 + O1_3_dy"
O1_3_z                  "0 + O1_3_dz"
O1_4_x                  "1/4 + O1_4_dx"
O1_4_y                  "3/4 + O1_4_dy"
O1_4_z                  "1/2 + O1_4_dz"
O1_5_x                  "3/4 + O1_5_dx"
O1_5_y                  "1/4 + O1_5_dy"
O1_5_z                  "0 + O1_5_dz"
O1_6_x                  "3/4 + O1_6_dx"
O1_6_y                  "1/4 + O1_6_dy"
O1_6_z                  "1/2 + O1_6_dz"
O1_7_x                  "3/4 + O1_7_dx"
O1_7_y                  "3/4 + O1_7_dy"
O1_7_z                  "0 + O1_7_dz"
O1_8_x                  "3/4 + O1_8_dx"
O1_8_y                  "3/4 + O1_8_dy"
O1_8_z                  "1/2 + O1_8_dz"
O1_9_x                  "0 + O1_9_dx"
O1_9_y                  "1/4 + O1_9_dy"
O1_9_z                  "3/4 + O1_9_dz"
O1_10_x                 "0 + O1_10_dx"
O1_10_y                 "1/4 + O1_10_dy"
O1_10_z                 "1/4 + O1_10_dz"
O1_11_x                 "0 + O1_11_dx"
O1_11_y                 "3/4 + O1_11_dy"
O1_11_z                 "3/4 + O1_11_dz"
O1_12_x                 "0 + O1_12_dx"
O1_12_y                 "3/4 + O1_12_dy"
O1_12_z                 "1/4 + O1_12_dz"
O1_13_x                 "1/2 + O1_13_dx"
O1_13_y                 "1/4 + O1_13_dy"
O1_13_z                 "3/4 + O1_13_dz"
O1_14_x                 "1/2 + O1_14_dx"
O1_14_y                 "1/4 + O1_14_dy"
O1_14_z                 "1/4 + O1_14_dz"
O1_15_x                 "1/2 + O1_15_dx"
O1_15_y                 "3/4 + O1_15_dy"
O1_15_z                 "3/4 + O1_15_dz"
O1_16_x                 "1/2 + O1_16_dx"
O1_16_y                 "3/4 + O1_16_dy"
O1_16_z                 "1/4 + O1_16_dz"
O1_17_x                 "1/4 + O1_17_dx"
O1_17_y                 "0 + O1_17_dy"
O1_17_z                 "3/4 + O1_17_dz"
O1_18_x                 "1/4 + O1_18_dx"
O1_18_y                 "0 + O1_18_dy"
O1_18_z                 "1/4 + O1_18_dz"
O1_19_x                 "1/4 + O1_19_dx"
O1_19_y                 "1/2 + O1_19_dy"
O1_19_z                 "3/4 + O1_19_dz"
O1_20_x                 "1/4 + O1_20_dx"
O1_20_y                 "1/2 + O1_20_dy"
O1_20_z                 "1/4 + O1_20_dz"
O1_21_x                 "3/4 + O1_21_dx"
O1_21_y                 "0 + O1_21_dy"
O1_21_z                 "3/4 + O1_21_dz"
O1_22_x                 "3/4 + O1_22_dx"
O1_22_y                 "0 + O1_22_dy"
O1_22_z                 "1/4 + O1_22_dz"
O1_23_x                 "3/4 + O1_23_dx"
O1_23_y                 "1/2 + O1_23_dy"
O1_23_z                 "3/4 + O1_23_dz"
O1_24_x                 "3/4 + O1_24_dx"
O1_24_y                 "1/2 + O1_24_dy"
O1_24_z                 "1/4 + O1_24_dz"

# matrix conversion: deltacoords(lattice units) = matrix.(modeamplitudes*modenormfactors)
# Square matrix with _iso_displacivemode_number rows and columns

loop_
_iso_displacivemodematrix_row
_iso_displacivemodematrix_col
_iso_displacivemodematrix_value
    1    3   1.00000
    1    4   1.00000
    1    9   1.00000
    1   10   1.00000
    1   13   1.00000
    1   16   1.00000
    1   21   1.00000
    1   24   1.00000
    2    2   1.00000
    2    6   1.00000
    2    7   1.00000
    2   12   1.00000
    2   15   1.00000
    2   17   1.00000
    2   20   1.00000
    2   23   1.00000
    3    1  -1.00000
    3    5  -1.00000
    3    8  -1.00000
    3   11  -1.00000
    3   14  -1.00000
    3   18  -1.00000
    3   19  -1.00000
    3   22  -1.00000
    4    3   1.00000
    4    4  -1.00000
    4    9   1.00000
    4   10   1.00000
    4   13  -1.00000
    4   16  -1.00000
    4   21  -1.00000
    4   24   1.00000
    5    2   1.00000
    5    6  -1.00000
    5    7   1.00000
    5   12  -1.00000
    5   15   1.00000
    5   17  -1.00000
    5   20  -1.00000
    5   23   1.00000
    6    1  -1.00000
    6    5   1.00000
    6    8   1.00000
    6   11  -1.00000
    6   14  -1.00000
    6   18  -1.00000
    6   19   1.00000
    6   22   1.00000
    7    3   1.00000
    7    4  -1.00000
    7    9   1.00000
    7   10  -1.00000
    7   13   1.00000
    7   16  -1.00000
    7   21   1.00000
    7   24  -1.00000
    8    2   1.00000
    8    6  -1.00000
    8    7  -1.00000
    8   12   1.00000
    8   15   1.00000
    8   17   1.00000
    8   20  -1.00000
    8   23  -1.00000
    9    1  -1.00000
    9    5   1.00000
    9    8  -1.00000
    9   11   1.00000
    9   14  -1.00000
    9   18   1.00000
    9   19   1.00000
    9   22  -1.00000
   10    3   1.00000
   10    4   1.00000
   10    9   1.00000
   10   10  -1.00000
   10   13  -1.00000
   10   16   1.00000
   10   21  -1.00000
   10   24  -1.00000
   11    2   1.00000
   11    6   1.00000
   11    7  -1.00000
   11   12  -1.00000
   11   15   1.00000
   11   17  -1.00000
   11   20   1.00000
   11   23  -1.00000
   12    1  -1.00000
   12    5  -1.00000
   12    8   1.00000
   12   11   1.00000
   12   14  -1.00000
   12   18   1.00000
   12   19  -1.00000
   12   22   1.00000
   13    3   1.00000
   13    4  -1.00000
   13    9  -1.00000
   13   10   1.00000
   13   13   1.00000
   13   16   1.00000
   13   21  -1.00000
   13   24  -1.00000
   14    2   1.00000
   14    6  -1.00000
   14    7   1.00000
   14   12   1.00000
   14   15  -1.00000
   14   17  -1.00000
   14   20   1.00000
   14   23  -1.00000
   15    1  -1.00000
   15    5   1.00000
   15    8  -1.00000
   15   11  -1.00000
   15   14   1.00000
   15   18   1.00000
   15   19  -1.00000
   15   22   1.00000
   16    3   1.00000
   16    4   1.00000
   16    9  -1.00000
   16   10   1.00000
   16   13  -1.00000
   16   16  -1.00000
   16   21   1.00000
   16   24  -1.00000
   17    2   1.00000
   17    6   1.00000
   17    7   1.00000
   17   12  -1.00000
   17   15  -1.00000
   17   17   1.00000
   17   20  -1.00000
   17   23  -1.00000
   18    1  -1.00000
   18    5  -1.00000
   18    8   1.00000
   18   11  -1.00000
   18   14   1.00000
   18   18   1.00000
   18   19   1.00000
   18   22  -1.00000
   19    3   1.00000
   19    4   1.00000
   19    9  -1.00000
   19   10  -1.00000
   19   13   1.00000
   19   16  -1.00000
   19   21  -1.00000
   19   24   1.00000
   20    2   1.00000
   20    6   1.00000
   20    7  -1.00000
   20   12   1.00000
   20   15  -1.00000
   20   17  -1.00000
   20   20  -1.00000
   20   23   1.00000
   21    1  -1.00000
   21    5  -1.00000
   21    8  -1.00000
   21   11   1.00000
   21   14   1.00000
   21   18  -1.00000
   21   19   1.00000
   21   22   1.00000
   22    3   1.00000
   22    4  -1.00000
   22    9  -1.00000
   22   10  -1.00000
   22   13  -1.00000
   22   16   1.00000
   22   21   1.00000
   22   24   1.00000
   23    2   1.00000
   23    6  -1.00000
   23    7  -1.00000
   23   12  -1.00000
   23   15  -1.00000
   23   17   1.00000
   23   20   1.00000
   23   23   1.00000
   24    1  -1.00000
   24    5   1.00000
   24    8   1.00000
   24   11   1.00000
   24   14   1.00000
   24   18  -1.00000
   24   19  -1.00000
   24   22  -1.00000
   25   27   1.00000
   25   28   1.00000
   25   33   1.00000
   25   35  -1.00000
   25   36   1.00000
   25   40   1.00000
   25   46   1.00000
   25   47   1.00000
   26   26   1.00000
   26   30   1.00000
   26   31   1.00000
   26   37  -1.00000
   26   38   1.00000
   26   41   1.00000
   26   43   1.00000
   26   48   1.00000
   27   25  -1.00000
   27   29  -1.00000
   27   32  -1.00000
   27   34  -1.00000
   27   39   1.00000
   27   42  -1.00000
   27   44  -1.00000
   27   45  -1.00000
   28   27   1.00000
   28   28  -1.00000
   28   33   1.00000
   28   35  -1.00000
   28   36  -1.00000
   28   40  -1.00000
   28   46  -1.00000
   28   47   1.00000
   29   26   1.00000
   29   30  -1.00000
   29   31   1.00000
   29   37   1.00000
   29   38   1.00000
   29   41  -1.00000
   29   43  -1.00000
   29   48   1.00000
   30   25  -1.00000
   30   29   1.00000
   30   32   1.00000
   30   34  -1.00000
   30   39   1.00000
   30   42  -1.00000
   30   44   1.00000
   30   45   1.00000
   31   27   1.00000
   31   28  -1.00000
   31   33   1.00000
   31   35   1.00000
   31   36   1.00000
   31   40  -1.00000
   31   46   1.00000
   31   47  -1.00000
   32   26   1.00000
   32   30  -1.00000
   32   31  -1.00000
   32   37  -1.00000
   32   38   1.00000
   32   41   1.00000
   32   43  -1.00000
   32   48  -1.00000
   33   25  -1.00000
   33   29   1.00000
   33   32  -1.00000
   33   34   1.00000
   33   39   1.00000
   33   42   1.00000
   33   44   1.00000
   33   45  -1.00000
   34   27   1.00000
   34   28   1.00000
   34   33   1.00000
   34   35   1.00000
   34   36  -1.00000
   34   40   1.00000
   34   46  -1.00000
   34   47  -1.00000
   35   26   1.00000
   35   30   1.00000
   35   31  -1.00000
   35   37   1.00000
   35   38   1.00000
   35   41  -1.00000
   35   43   1.00000
   35   48  -1.00000
   36   25  -1.00000
   36   29  -1.00000
   36   32   1.00000
   36   34   1.00000
   36   39   1.00000
   36   42   1.00000
   36   44  -1.00000
   36   45   1.00000
   37   27   1.00000
   37   28  -1.00000
   37   33  -1.00000
   37   35  -1.00000
   37   36   1.00000
   37   40   1.00000
   37   46  -1.00000
   37   47  -1.00000
   38   26   1.00000
   38   30  -1.00000
   38   31   1.00000
   38   37  -1.00000
   38   38  -1.00000
   38   41  -1.00000
   38   43   1.00000
   38   48  -1.00000
   39   25  -1.00000
   39   29   1.00000
   39   32  -1.00000
   39   34  -1.00000
   39   39  -1.00000
   39   42   1.00000
   39   44  -1.00000
   39   45   1.00000
   40   27   1.00000
   40   28   1.00000
   40   33  -1.00000
   40   35  -1.00000
   40   36  -1.00000
   40   40  -1.00000
   40   46   1.00000
   40   47  -1.00000
   41   26   1.00000
   41   30   1.00000
   41   31   1.00000
   41   37   1.00000
   41   38  -1.00000
   41   41   1.00000
   41   43  -1.00000
   41   48  -1.00000
   42   25  -1.00000
   42   29  -1.00000
   42   32   1.00000
   42   34  -1.00000
   42   39  -1.00000
   42   42   1.00000
   42   44   1.00000
   42   45  -1.00000
   43   27   1.00000
   43   28   1.00000
   43   33  -1.00000
   43   35   1.00000
   43   36   1.00000
   43   40  -1.00000
   43   46  -1.00000
   43   47   1.00000
   44   26   1.00000
   44   30   1.00000
   44   31  -1.00000
   44   37  -1.00000
   44   38  -1.00000
   44   41  -1.00000
   44   43  -1.00000
   44   48   1.00000
   45   25  -1.00000
   45   29  -1.00000
   45   32  -1.00000
   45   34   1.00000
   45   39  -1.00000
   45   42  -1.00000
   45   44   1.00000
   45   45   1.00000
   46   27   1.00000
   46   28  -1.00000
   46   33  -1.00000
   46   35   1.00000
   46   36  -1.00000
   46   40   1.00000
   46   46   1.00000
   46   47   1.00000
   47   26   1.00000
   47   30  -1.00000
   47   31  -1.00000
   47   37   1.00000
   47   38  -1.00000
   47   41   1.00000
   47   43   1.00000
   47   48   1.00000
   48   25  -1.00000
   48   29   1.00000
   48   32   1.00000
   48   34   1.00000
   48   39  -1.00000
   48   42  -1.00000
   48   44  -1.00000
   48   45  -1.00000
   49   54   1.00000
   49   55  -1.00000
   49   63   1.00000
   49   66  -1.00000
   49   69   1.00000
   49   72  -1.00000
   49   80  -1.00000
   49   91   1.00000
   49   95   1.00000
   49   98  -1.00000
   49  106  -1.00000
   49  119  -1.00000
   50   53   1.00000
   50   57   1.00000
   50   61   1.00000
   50   64   1.00000
   50   67   1.00000
   50   70   1.00000
   50   83   1.00000
   50   90   1.00000
   50   94   1.00000
   50   97   1.00000
   50  109   1.00000
   50  120  -1.00000
   51   49  -1.00000
   51   58  -1.00000
   51   59  -0.50000
   51   60  -1.00000
   51   73  -1.00000
   51   78   1.00000
   51   86  -1.00000
   51  100  -1.00000
   51  101   1.00000
   51  103  -1.00000
   51  104  -1.00000
   51  114  -1.00000
   52   54   1.00000
   52   55  -1.00000
   52   63  -1.00000
   52   66   1.00000
   52   69   1.00000
   52   72  -1.00000
   52   80  -1.00000
   52   91  -1.00000
   52   95  -1.00000
   52   98   1.00000
   52  106   1.00000
   52  119  -1.00000
   53   53   1.00000
   53   57   1.00000
   53   61  -1.00000
   53   64  -1.00000
   53   67   1.00000
   53   70   1.00000
   53   83   1.00000
   53   90  -1.00000
   53   94  -1.00000
   53   97  -1.00000
   53  109  -1.00000
   53  120  -1.00000
   54   49  -1.00000
   54   58   1.00000
   54   59   0.50000
   54   60   1.00000
   54   73  -1.00000
   54   78   1.00000
   54   86   1.00000
   54  100   1.00000
   54  101  -1.00000
   54  103   1.00000
   54  104   1.00000
   54  114  -1.00000
   55   54   1.00000
   55   55  -1.00000
   55   63  -1.00000
   55   66   1.00000
   55   69   1.00000
   55   72  -1.00000
   55   80   1.00000
   55   91   1.00000
   55   95   1.00000
   55   98  -1.00000
   55  106   1.00000
   55  119   1.00000
   56   53   1.00000
   56   57   1.00000
   56   61  -1.00000
   56   64  -1.00000
   56   67  -1.00000
   56   70  -1.00000
   56   83   1.00000
   56   90   1.00000
   56   94  -1.00000
   56   97  -1.00000
   56  109   1.00000
   56  120   1.00000
   57   49  -1.00000
   57   58   1.00000
   57   59   0.50000
   57   60   1.00000
   57   73   1.00000
   57   78   1.00000
   57   86  -1.00000
   57  100   1.00000
   57  101   1.00000
   57  103   1.00000
   57  104  -1.00000
   57  114   1.00000
   58   54   1.00000
   58   55  -1.00000
   58   63   1.00000
   58   66  -1.00000
   58   69   1.00000
   58   72  -1.00000
   58   80   1.00000
   58   91  -1.00000
   58   95  -1.00000
   58   98   1.00000
   58  106  -1.00000
   58  119   1.00000
   59   53   1.00000
   59   57   1.00000
   59   61   1.00000
   59   64   1.00000
   59   67  -1.00000
   59   70  -1.00000
   59   83   1.00000
   59   90  -1.00000
   59   94   1.00000
   59   97   1.00000
   59  109  -1.00000
   59  120   1.00000
   60   49  -1.00000
   60   58  -1.00000
   60   59  -0.50000
   60   60  -1.00000
   60   73   1.00000
   60   78   1.00000
   60   86   1.00000
   60  100  -1.00000
   60  101  -1.00000
   60  103  -1.00000
   60  104   1.00000
   60  114   1.00000
   61   54   1.00000
   61   55  -1.00000
   61   63  -1.00000
   61   66   1.00000
   61   69  -1.00000
   61   72   1.00000
   61   80  -1.00000
   61   91   1.00000
   61   95  -1.00000
   61   98   1.00000
   61  106  -1.00000
   61  119   1.00000
   62   53   1.00000
   62   57   1.00000
   62   61  -1.00000
   62   64  -1.00000
   62   67   1.00000
   62   70   1.00000
   62   83  -1.00000
   62   90   1.00000
   62   94   1.00000
   62   97   1.00000
   62  109  -1.00000
   62  120   1.00000
   63   49  -1.00000
   63   58   1.00000
   63   59   0.50000
   63   60   1.00000
   63   73  -1.00000
   63   78  -1.00000
   63   86  -1.00000
   63  100  -1.00000
   63  101  -1.00000
   63  103  -1.00000
   63  104   1.00000
   63  114   1.00000
   64   54   1.00000
   64   55  -1.00000
   64   63   1.00000
   64   66  -1.00000
   64   69  -1.00000
   64   72   1.00000
   64   80  -1.00000
   64   91  -1.00000
   64   95   1.00000
   64   98  -1.00000
   64  106   1.00000
   64  119   1.00000
   65   53   1.00000
   65   57   1.00000
   65   61   1.00000
   65   64   1.00000
   65   67   1.00000
   65   70   1.00000
   65   83  -1.00000
   65   90  -1.00000
   65   94  -1.00000
   65   97  -1.00000
   65  109   1.00000
   65  120   1.00000
   66   49  -1.00000
   66   58  -1.00000
   66   59  -0.50000
   66   60  -1.00000
   66   73  -1.00000
   66   78  -1.00000
   66   86   1.00000
   66  100   1.00000
   66  101   1.00000
   66  103   1.00000
   66  104  -1.00000
   66  114   1.00000
   67   54   1.00000
   67   55  -1.00000
   67   63   1.00000
   67   66  -1.00000
   67   69  -1.00000
   67   72   1.00000
   67   80   1.00000
   67   91   1.00000
   67   95  -1.00000
   67   98   1.00000
   67  106   1.00000
   67  119  -1.00000
   68   53   1.00000
   68   57   1.00000
   68   61   1.00000
   68   64   1.00000
   68   67  -1.00000
   68   70  -1.00000
   68   83  -1.00000
   68   90   1.00000
   68   94  -1.00000
   68   97  -1.00000
   68  109  -1.00000
   68  120  -1.00000
   69   49  -1.00000
   69   58  -1.00000
   69   59  -0.50000
   69   60  -1.00000
   69   73   1.00000
   69   78  -1.00000
   69   86  -1.00000
   69  100   1.00000
   69  101  -1.00000
   69  103   1.00000
   69  104   1.00000
   69  114  -1.00000
   70   54   1.00000
   70   55  -1.00000
   70   63  -1.00000
   70   66   1.00000
   70   69  -1.00000
   70   72   1.00000
   70   80   1.00000
   70   91  -1.00000
   70   95   1.00000
   70   98  -1.00000
   70  106  -1.00000
   70  119  -1.00000
   71   53   1.00000
   71   57   1.00000
   71   61  -1.00000
   71   64  -1.00000
   71   67  -1.00000
   71   70  -1.00000
   71   83  -1.00000
   71   90  -1.00000
   71   94   1.00000
   71   97   1.00000
   71  109   1.00000
   71  120  -1.00000
   72   49  -1.00000
   72   58   1.00000
   72   59   0.50000
   72   60   1.00000
   72   73   1.00000
   72   78  -1.00000
   72   86   1.00000
   72  100  -1.00000
   72  101   1.00000
   72  103  -1.00000
   72  104  -1.00000
   72  114  -1.00000
   73   51   1.00000
   73   58   1.00000
   73   59  -1.00000
   73   74  -1.00000
   73   75   1.00000
   73   87   1.00000
   73  101   1.00000
   73  102  -1.00000
   73  104   1.00000
   73  105   1.00000
   73  112   1.00000
   74   53   1.00000
   74   57  -1.00000
   74   62   1.00000
   74   65  -1.00000
   74   67   1.00000
   74   70  -1.00000
   74   82  -1.00000
   74   93   1.00000
   74   96   1.00000
   74   99  -1.00000
   74  108  -1.00000
   74  115  -1.00000
   75   52  -1.00000
   75   56  -1.00000
   75   63  -1.00000
   75   66  -1.00000
   75   68  -1.00000
   75   71  -1.00000
   75   79  -1.00000
   75   92  -1.00000
   75   95  -1.00000
   75   98  -1.00000
   75  111  -1.00000
   75  116   1.00000
   76   51   1.00000
   76   58  -1.00000
   76   59   1.00000
   76   74  -1.00000
   76   75  -1.00000
   76   87   1.00000
   76  101  -1.00000
   76  102  -1.00000
   76  104  -1.00000
   76  105   1.00000
   76  112  -1.00000
   77   53   1.00000
   77   57  -1.00000
   77   62  -1.00000
   77   65   1.00000
   77   67   1.00000
   77   70  -1.00000
   77   82   1.00000
   77   93   1.00000
   77   96   1.00000
   77   99  -1.00000
   77  108   1.00000
   77  115   1.00000
   78   52  -1.00000
   78   56  -1.00000
   78   63   1.00000
   78   66   1.00000
   78   68   1.00000
   78   71   1.00000
   78   79  -1.00000
   78   92  -1.00000
   78   95   1.00000
   78   98   1.00000
   78  111  -1.00000
   78  116  -1.00000
   79   51   1.00000
   79   58  -1.00000
   79   59   1.00000
   79   74   1.00000
   79   75   1.00000
   79   87   1.00000
   79  101   1.00000
   79  102   1.00000
   79  104   1.00000
   79  105  -1.00000
   79  112  -1.00000
   80   53   1.00000
   80   57  -1.00000
   80   62  -1.00000
   80   65   1.00000
   80   67  -1.00000
   80   70   1.00000
   80   82  -1.00000
   80   93   1.00000
   80   96  -1.00000
   80   99   1.00000
   80  108  -1.00000
   80  115   1.00000
   81   52  -1.00000
   81   56  -1.00000
   81   63   1.00000
   81   66   1.00000
   81   68  -1.00000
   81   71  -1.00000
   81   79   1.00000
   81   92  -1.00000
   81   95  -1.00000
   81   98  -1.00000
   81  111   1.00000
   81  116  -1.00000
   82   51   1.00000
   82   58   1.00000
   82   59  -1.00000
   82   74   1.00000
   82   75  -1.00000
   82   87   1.00000
   82  101  -1.00000
   82  102   1.00000
   82  104  -1.00000
   82  105  -1.00000
   82  112   1.00000
   83   53   1.00000
   83   57  -1.00000
   83   62   1.00000
   83   65  -1.00000
   83   67  -1.00000
   83   70   1.00000
   83   82   1.00000
   83   93   1.00000
   83   96  -1.00000
   83   99   1.00000
   83  108   1.00000
   83  115  -1.00000
   84   52  -1.00000
   84   56  -1.00000
   84   63  -1.00000
   84   66  -1.00000
   84   68   1.00000
   84   71   1.00000
   84   79   1.00000
   84   92  -1.00000
   84   95   1.00000
   84   98   1.00000
   84  111   1.00000
   84  116   1.00000
   85   51   1.00000
   85   58  -1.00000
   85   59   1.00000
   85   74  -1.00000
   85   75   1.00000
   85   87  -1.00000
   85  101  -1.00000
   85  102   1.00000
   85  104  -1.00000
   85  105  -1.00000
   85  112   1.00000
   86   53   1.00000
   86   57  -1.00000
   86   62  -1.00000
   86   65   1.00000
   86   67   1.00000
   86   70  -1.00000
   86   82  -1.00000
   86   93  -1.00000
   86   96  -1.00000
   86   99   1.00000
   86  108   1.00000
   86  115  -1.00000
   87   52  -1.00000
   87   56  -1.00000
   87   63   1.00000
   87   66   1.00000
   87   68  -1.00000
   87   71  -1.00000
   87   79  -1.00000
   87   92   1.00000
   87   95   1.00000
   87   98   1.00000
   87  111   1.00000
   87  116   1.00000
   88   51   1.00000
   88   58   1.00000
   88   59  -1.00000
   88   74  -1.00000
   88   75  -1.00000
   88   87  -1.00000
   88  101   1.00000
   88  102   1.00000
   88  104   1.00000
   88  105  -1.00000
   88  112  -1.00000
   89   53   1.00000
   89   57  -1.00000
   89   62   1.00000
   89   65  -1.00000
   89   67   1.00000
   89   70  -1.00000
   89   82   1.00000
   89   93  -1.00000
   89   96  -1.00000
   89   99   1.00000
   89  108  -1.00000
   89  115   1.00000
   90   52  -1.00000
   90   56  -1.00000
   90   63  -1.00000
   90   66  -1.00000
   90   68   1.00000
   90   71   1.00000
   90   79  -1.00000
   90   92   1.00000
   90   95  -1.00000
   90   98  -1.00000
   90  111   1.00000
   90  116  -1.00000
   91   51   1.00000
   91   58   1.00000
   91   59  -1.00000
   91   74   1.00000
   91   75   1.00000
   91   87  -1.00000
   91  101  -1.00000
   91  102  -1.00000
   91  104  -1.00000
   91  105   1.00000
   91  112  -1.00000
   92   53   1.00000
   92   57  -1.00000
   92   62   1.00000
   92   65  -1.00000
   92   67  -1.00000
   92   70   1.00000
   92   82  -1.00000
   92   93  -1.00000
   92   96   1.00000
   92   99  -1.00000
   92  108   1.00000
   92  115   1.00000
   93   52  -1.00000
   93   56  -1.00000
   93   63  -1.00000
   93   66  -1.00000
   93   68  -1.00000
   93   71  -1.00000
   93   79   1.00000
   93   92   1.00000
   93   95   1.00000
   93   98   1.00000
   93  111  -1.00000
   93  116  -1.00000
   94   51   1.00000
   94   58  -1.00000
   94   59   1.00000
   94   74   1.00000
   94   75  -1.00000
   94   87  -1.00000
   94  101   1.00000
   94  102  -1.00000
   94  104   1.00000
   94  105   1.00000
   94  112   1.00000
   95   53   1.00000
   95   57  -1.00000
   95   62  -1.00000
   95   65   1.00000
   95   67  -1.00000
   95   70   1.00000
   95   82   1.00000
   95   93  -1.00000
   95   96   1.00000
   95   99  -1.00000
   95  108  -1.00000
   95  115  -1.00000
   96   52  -1.00000
   96   56  -1.00000
   96   63   1.00000
   96   66   1.00000
   96   68   1.00000
   96   71   1.00000
   96   79   1.00000
   96   92   1.00000
   96   95  -1.00000
   96   98  -1.00000
   96  111  -1.00000
   96  116   1.00000
   97   54   1.00000
   97   55   1.00000
   97   62   1.00000
   97   65   1.00000
   97   69   1.00000
   97   72   1.00000
   97   81   1.00000
   97   88   1.00000
   97   96   1.00000
   97   99   1.00000
   97  107   1.00000
   97  118  -1.00000
   98   50   1.00000
   98   58   1.00000
   98   59   0.50000
   98   60  -1.00000
   98   76  -1.00000
   98   77   1.00000
   98   85   1.00000
   98  100  -1.00000
   98  102   1.00000
   98  103   1.00000
   98  105   1.00000
   98  113   1.00000
   99   52  -1.00000
   99   56   1.00000
   99   61  -1.00000
   99   64   1.00000
   99   68  -1.00000
   99   71   1.00000
   99   84   1.00000
   99   89  -1.00000
   99   94  -1.00000
   99   97   1.00000
   99  110   1.00000
   99  117   1.00000
  100   54   1.00000
  100   55   1.00000
  100   62  -1.00000
  100   65  -1.00000
  100   69   1.00000
  100   72   1.00000
  100   81  -1.00000
  100   88   1.00000
  100   96   1.00000
  100   99   1.00000
  100  107  -1.00000
  100  118   1.00000
  101   50   1.00000
  101   58  -1.00000
  101   59  -0.50000
  101   60   1.00000
  101   76   1.00000
  101   77   1.00000
  101   85   1.00000
  101  100   1.00000
  101  102   1.00000
  101  103  -1.00000
  101  105   1.00000
  101  113  -1.00000
  102   52  -1.00000
  102   56   1.00000
  102   61   1.00000
  102   64  -1.00000
  102   68   1.00000
  102   71  -1.00000
  102   84   1.00000
  102   89  -1.00000
  102   94   1.00000
  102   97  -1.00000
  102  110   1.00000
  102  117  -1.00000
  103   54   1.00000
  103   55   1.00000
  103   62  -1.00000
  103   65  -1.00000
  103   69   1.00000
  103   72   1.00000
  103   81   1.00000
  103   88  -1.00000
  103   96  -1.00000
  103   99  -1.00000
  103  107  -1.00000
  103  118  -1.00000
  104   50   1.00000
  104   58  -1.00000
  104   59  -0.50000
  104   60   1.00000
  104   76  -1.00000
  104   77   1.00000
  104   85  -1.00000
  104  100   1.00000
  104  102  -1.00000
  104  103  -1.00000
  104  105  -1.00000
  104  113   1.00000
  105   52  -1.00000
  105   56   1.00000
  105   61   1.00000
  105   64  -1.00000
  105   68  -1.00000
  105   71   1.00000
  105   84   1.00000
  105   89   1.00000
  105   94   1.00000
  105   97  -1.00000
  105  110  -1.00000
  105  117   1.00000
  106   54   1.00000
  106   55   1.00000
  106   62   1.00000
  106   65   1.00000
  106   69   1.00000
  106   72   1.00000
  106   81  -1.00000
  106   88  -1.00000
  106   96  -1.00000
  106   99  -1.00000
  106  107   1.00000
  106  118   1.00000
  107   50   1.00000
  107   58   1.00000
  107   59   0.50000
  107   60  -1.00000
  107   76   1.00000
  107   77   1.00000
  107   85  -1.00000
  107  100  -1.00000
  107  102  -1.00000
  107  103   1.00000
  107  105  -1.00000
  107  113  -1.00000
  108   52  -1.00000
  108   56   1.00000
  108   61  -1.00000
  108   64   1.00000
  108   68   1.00000
  108   71  -1.00000
  108   84   1.00000
  108   89   1.00000
  108   94  -1.00000
  108   97   1.00000
  108  110  -1.00000
  108  117  -1.00000
  109   54   1.00000
  109   55   1.00000
  109   62  -1.00000
  109   65  -1.00000
  109   69  -1.00000
  109   72  -1.00000
  109   81   1.00000
  109   88   1.00000
  109   96  -1.00000
  109   99  -1.00000
  109  107   1.00000
  109  118   1.00000
  110   50   1.00000
  110   58  -1.00000
  110   59  -0.50000
  110   60   1.00000
  110   76  -1.00000
  110   77  -1.00000
  110   85   1.00000
  110  100  -1.00000
  110  102  -1.00000
  110  103   1.00000
  110  105  -1.00000
  110  113  -1.00000
  111   52  -1.00000
  111   56   1.00000
  111   61   1.00000
  111   64  -1.00000
  111   68  -1.00000
  111   71   1.00000
  111   84  -1.00000
  111   89  -1.00000
  111   94  -1.00000
  111   97   1.00000
  111  110  -1.00000
  111  117  -1.00000
  112   54   1.00000
  112   55   1.00000
  112   62   1.00000
  112   65   1.00000
  112   69  -1.00000
  112   72  -1.00000
  112   81  -1.00000
  112   88   1.00000
  112   96  -1.00000
  112   99  -1.00000
  112  107  -1.00000
  112  118  -1.00000
  113   50   1.00000
  113   58   1.00000
  113   59   0.50000
  113   60  -1.00000
  113   76   1.00000
  113   77  -1.00000
  113   85   1.00000
  113  100   1.00000
  113  102  -1.00000
  113  103  -1.00000
  113  105  -1.00000
  113  113   1.00000
  114   52  -1.00000
  114   56   1.00000
  114   61  -1.00000
  114   64   1.00000
  114   68   1.00000
  114   71  -1.00000
  114   84  -1.00000
  114   89  -1.00000
  114   94   1.00000
  114   97  -1.00000
  114  110  -1.00000
  114  117   1.00000
  115   54   1.00000
  115   55   1.00000
  115   62   1.00000
  115   65   1.00000
  115   69  -1.00000
  115   72  -1.00000
  115   81   1.00000
  115   88  -1.00000
  115   96   1.00000
  115   99   1.00000
  115  107  -1.00000
  115  118   1.00000
  116   50   1.00000
  116   58   1.00000
  116   59   0.50000
  116   60  -1.00000
  116   76  -1.00000
  116   77  -1.00000
  116   85  -1.00000
  116  100   1.00000
  116  102   1.00000
  116  103  -1.00000
  116  105   1.00000
  116  113  -1.00000
  117   52  -1.00000
  117   56   1.00000
  117   61  -1.00000
  117   64   1.00000
  117   68  -1.00000
  117   71   1.00000
  117   84  -1.00000
  117   89   1.00000
  117   94   1.00000
  117   97  -1.00000
  117  110   1.00000
  117  117  -1.00000
  118   54   1.00000
  118   55   1.00000
  118   62  -1.00000
  118   65  -1.00000
  118   69  -1.00000
  118   72  -1.00000
  118   81  -1.00000
  118   88  -1.00000
  118   96   1.00000
  118   99   1.00000
  118  107   1.00000
  118  118  -1.00000
  119   50   1.00000
  119   58  -1.00000
  119   59  -0.50000
  119   60   1.00000
  119   76   1.00000
  119   77  -1.00000
  119   85  -1.00000
  119  100  -1.00000
  119  102   1.00000
  119  103   1.00000
  119  105   1.00000
  119  113   1.00000
  120   52  -1.00000
  120   56   1.00000
  120   61   1.00000
  120   64  -1.00000
  120   68   1.00000
  120   71  -1.00000
  120   84  -1.00000
  120   89   1.00000
  120   94  -1.00000
  120   97   1.00000
  120  110   1.00000
  120  117   1.00000

_iso_magneticmode_number    0


_iso_rotationalmode_number    0


_iso_occupancymode_number    0

_iso_strainmode_number    6

loop_
_iso_strainmode_ID
_iso_strainmode_label
_iso_strainmode_value
   1 Pm-3m[0,0,0]GM1+(a)strain(a) 0.00000
   2 Pm-3m[0,0,0]GM3+(a,b)strain(a) 0.00000
   3 Pm-3m[0,0,0]GM3+(a,b)strain(b) 0.00000
   4 Pm-3m[0,0,0]GM5+(a,b,c)strain(a) 0.00000
   5 Pm-3m[0,0,0]GM5+(a,b,c)strain(b) 0.00000
   6 Pm-3m[0,0,0]GM5+(a,b,c)strain(c) 0.00000

loop_
_iso_strainmodenorm_ID
_iso_strainmodenorm_value
   1 0.57735
   2 0.81650
   3 0.70711
   4 1.41421
   5 1.41421
   6 1.41421

loop_
_iso_strain_ID
_iso_strain_label
_iso_strain_value
   1 E_1   0.00000
   2 E_2   0.00000
   3 E_3   0.00000
   4 E_4   0.00000
   5 E_5   0.00000
   6 E_6   0.00000

# matrix conversion: strains(parent) = matrix * modeamplitudes
# Rectangular matrix with 6 rows and _iso_strainmode_number columns

loop_
_iso_strainmodematrix_row
_iso_strainmodematrix_col
_iso_strainmodematrix_value
    1    1   1.00000
    1    2  -0.50000
    1    3   1.00000
    2    1   1.00000
    2    2  -0.50000
    2    3  -1.00000
    3    1   1.00000
    3    2   1.00000
    4    5   1.00000
    5    6   1.00000
    6    4   1.00000

# end of structure file
# end of cif
